[globalOptions]

# Set the input directory map in an absolute path. 
# - The input forcing and parameter directories will be relative to this.
inputDir  = /projects/0/dfguu/data/hydroworld/

# set the pcrglobwb output directory in an absolute path
outputDir = /scratch-shared/edwin/05min_runs_may_2016/pcrglobwb_modflow_from_1901_4LCs_edwin_parameter_set_natural/no_correction/begin/

# the following is needed for a parallel run
#~ cloneAreas = Global
#~ cloneAreas = M47,M48,M49
#~ cloneAreas = M47,M48,M49,M29
#~ cloneAreas = M17,M26,M44,M29,M52,M02
#
# PART ONE
cloneAreas = part_one
#~ # PART TWO
#~ cloneAreas = part_two

# Map of clone (must be provided in PCRaster maps)
# - Spatial resolution and coverage are based on this map:
#~ cloneMap = others/RhineMeuse/RhineMeuse05min.clone.map
#~ cloneMap = others/Mississippi/Mississippi05min.clone.map
#~ cloneMap = others/Indus/Indus05min.clone.map
#~ cloneMap = others/Nile/Nile05min.clone.map
cloneMap = others/05ArcMinCloneMaps/new_masks_from_top/clone_%3s.map

# The area/landmask of interest:
# If None, area/landmask is limited for cells with ldd value. 
landmask = others/05ArcMinCloneMaps/new_masks_from_top/mask_%3s.map

# netcdf attributes for output files:
institution = Department of Physical Geography, Utrecht University
title       = PCR-GLOBWB 2 output (coupled to MODFLOW)
description = test version (by Edwin H. Sutanudjaja) 

startTime = 1901-01-01
endTime   = 2010-12-31
# Format: YYYY-MM-DD ; The current model runs on the daily time step.

# spinning up options:
maxSpinUpsInYears = 0
minConvForSoilSto = 0.0
minConvForGwatSto = 0.0
minConvForChanSto = 0.0
minConvForTotlSto = 0.0

# option/directory for saving the spin-up directory 
spinUpOutputDir = True

[globalModflowOptions]

# option to indicate if an online coupling between PCR-GLOBWB and MODFLOW modle used
online_coupling_between_pcrglobwb_and_moflow = True

cloneMap = PCRGLOBWB20/input5min/routing/lddsound_05min.map
#~ cloneMap = others/RhineMeuse/RhineMeuse05min.clone.map
#~ cloneMap = others/Nile/Nile05min.clone.map
#~ cloneMap = others/05ArcMinCloneMaps/new_masks_from_top/clone_M03.map

# The area/landmask of interest:
landmask = None
# If None, area/landmask is limited for cells with ldd value. 

# temporary modflow folder:
tmp_modflow_dir = /dev/shm/edwin/pcrglobwb_modflow/

[prefactorOptions]

linear_multiplier_for_refPotET         = 1.0
linear_multiplier_for_degreeDayFactor  = 1.0
linear_multiplier_for_minSoilDepthFrac = 1.0
log_10_multiplier_for_kSat             = 0.0
linear_multiplier_for_storCap          = 1.0
log_10_multiplier_for_recessionCoeff   = 0.0

[meteoOptions]

# Set the forcing temperature and precipitation files (relative to inputDir)
precipitationNC = forcing/ERA20C/CRU-TS3.23_ERA20C_daily_precipitation_1901_to_2010.nc
temperatureNC   = forcing/ERA20C/CRU-TS3.23_ERA20C_daily_temperature_1901_to_2010.nc

# Method to calculate referencePotETP (reference potential evaporation+transpiration)
# options are "Hamon" and "Input" ; If "Input", the netcdf input file must be given:
referenceETPotMethod = Input
refETPotFileNC  = forcing/ERA20C/CRU-TS3.23_ERA20C_daily_referencePotET_1901_to_2010.nc

[meteoDownscalingOptions]                                                                                                                                        
                                                                                                                                                                 
downscalePrecipitation  = False                                                                                                                                   
downscaleTemperature    = True                                                                                                                                   
downscaleReferenceETPot = False                                                                                                                                   
                                                                                                                                                                 
# downscaling (based on the digital elevation model):                                                                                                            
# The downscaling will be performed by providing the "cellIds" (meteoDownscaleIds) of lower resolution cells.                                                    
meteoDownscaleIds = PCRGLOBWB20/input5min/meteo/downscalingFrom30ArcMin/uniqueIds_30min.map                                                                      
highResolutionDEM = PCRGLOBWB20/input5min/meteo/downscalingFrom30ArcMin/gtopo05min.map                                                                           
                                                                                                                                                                 
# lapse rates:                                                                                                                                                   
temperLapseRateNC = PCRGLOBWB20/input5min/meteo/downscalingFrom30ArcMin/temperature_slope.nc                                                                     
precipLapseRateNC = PCRGLOBWB20/input5min/meteo/downscalingFrom30ArcMin/precipitation_slope.nc                                                                   
                                                                                                                                                                 
# downscaling criteria (TODO: remove these):                                                                                                                     
temperatCorrelNC = PCRGLOBWB20/input5min/meteo/downscalingFrom30ArcMin/temperature_correl.nc                                                                     
precipitCorrelNC = PCRGLOBWB20/input5min/meteo/downscalingFrom30ArcMin/precipitation_correl.nc                                                                   
                                                                                                                                                                 
# windows length (unit: arc-degree) for smoothing/averaging forcing data (not recommended):                                                                      
smoothingWindowsLength = 0                                                                                                                                       

[landSurfaceOptions]
debugWaterBalance = True

numberOfUpperSoilLayers = 2

# soil and parameters
# - they are used for all land cover types, unless they are are defined in certain land cover type options 
#   (e.g. different/various soil types for agriculture areas)  
topographyNC     = /projects/0/dfguu/users/edwin/data/floodplain_05arcmin_world_final/based_on_daily_runoff/topography_parameters_5_arcmin_october_2015.nc
soilPropertiesNC = PCRGLOBWB20/input5min/landSurface/soil/v03Jul2013/soilProperties5ArcMin.nc

includeIrrigation = False

# a pcraster map/value defining irrigation efficiency (dimensionless) - optional
irrigationEfficiency = None

# netcdf time series for historical expansion of irrigation areas (unit: hectares). 
# Note: The resolution of this map must be consisten with the resolution of cellArea. 
historicalIrrigationArea = None

includeDomesticWaterDemand  = False
includeIndustryWaterDemand  = False
includeLivestockWaterDemand = False

# domestic and industrial water demand data (unit must be in m.day-1)
domesticWaterDemandFile  = None
industryWaterDemandFile  = None
livestockWaterDemandFile = None

# desalination water supply (maximum/potential/capacity)
desalinationWater = None

# zone IDs (scale) at which allocations of groundwater and surface water (as well as desalinated water) are performed  
allocationSegmentsForGroundSurfaceWater = None

limitAbstraction = True

[forestOptions]

name = forest
debugWaterBalance = True

# snow module properties
snowModuleType      =  Simple
freezingT           =  0.0
degreeDayFactor     =  0.0025
snowWaterHoldingCap =  0.1
refreezingCoeff     =  0.05

# other paramater values
minTopWaterLayer = 0.0
minCropKC        = 0.2

#~ landCoverMapsNC = PCRGLOBWB20/input5min/landCover/forest/forestProperties5ArcMin.nc
landCoverMapsNC  = None
# If NC file is not provided, we have to provide the following pcraster maps:
fracVegCover     = PCRGLOBWB20/input5min/landCover/forest/vegf_tall.map
minSoilDepthFrac = PCRGLOBWB20/input30min/landCover/forest/minf_tall_permafrost.map
maxSoilDepthFrac = PCRGLOBWB20/input30min/landCover/forest/maxf_tall.map
rootFraction1    = PCRGLOBWB20/input5min/landCover/forest/rfrac1_tall.map
rootFraction2    = PCRGLOBWB20/input5min/landCover/forest/rfrac2_tall.map	
maxRootDepth     = PCRGLOBWB20/input5min/landCover/forest/maxrootdepth_tall.map	

# Parameters for the Arno's scheme:
arnoBeta = None
# If arnoBeta is defined, the soil water capacity distribution is based on this.
# If arnoBeta is NOT defined, maxSoilDepthFrac must be defined such that arnoBeta will be calculated based on maxSoilDepthFrac and minSoilDepthFrac.

cropCoefficientNC = PCRGLOBWB20/input5min/landCover_v05Jul2013/Global/netcdf/cropCoefficientForest.nc
interceptCapNC    = PCRGLOBWB20/input5min/landCover_v05Jul2013/Global/netcdf/interceptCapInputForest.nc
coverFractionNC   = PCRGLOBWB20/input5min/landCover_v05Jul2013/Global/netcdf/coverFractionInputForest.nc

# initial conditions:
interceptStorIni = /projects/0/wtrcycle/users/edwin/05min_runs_february_2016/pcrglobwb_only_from_1901_4LCs_edwin_parameter_set_natural/no_correction/global/states/interceptStor_forest_1901-12-31.map
snowCoverSWEIni  = /projects/0/wtrcycle/users/edwin/05min_runs_february_2016/pcrglobwb_only_from_1901_4LCs_edwin_parameter_set_natural/no_correction/global/states/snowCoverSWE_forest_1901-12-31.map
snowFreeWaterIni = /projects/0/wtrcycle/users/edwin/05min_runs_february_2016/pcrglobwb_only_from_1901_4LCs_edwin_parameter_set_natural/no_correction/global/states/snowFreeWater_forest_1901-12-31.map
topWaterLayerIni = /projects/0/wtrcycle/users/edwin/05min_runs_february_2016/pcrglobwb_only_from_1901_4LCs_edwin_parameter_set_natural/no_correction/global/states/topWaterLayer_forest_1901-12-31.map
storUppIni       = /projects/0/wtrcycle/users/edwin/05min_runs_february_2016/pcrglobwb_only_from_1901_4LCs_edwin_parameter_set_natural/no_correction/global/states/storUpp_forest_1901-12-31.map
storLowIni       = /projects/0/wtrcycle/users/edwin/05min_runs_february_2016/pcrglobwb_only_from_1901_4LCs_edwin_parameter_set_natural/no_correction/global/states/storLow_forest_1901-12-31.map
interflowIni     = /projects/0/wtrcycle/users/edwin/05min_runs_february_2016/pcrglobwb_only_from_1901_4LCs_edwin_parameter_set_natural/no_correction/global/states/interflow_forest_1901-12-31.map

[grasslandOptions]

name = grassland
debugWaterBalance = True

# snow module properties
snowModuleType      =  Simple
freezingT           =  0.0
degreeDayFactor     =  0.0025
snowWaterHoldingCap =  0.1
refreezingCoeff     =  0.05

# other paramater values
minTopWaterLayer = 0.0
minCropKC        = 0.2

#~ landCoverMapsNC = PCRGLOBWB20/input5min/landCover/grassland/grasslandProperties5ArcMin.nc
landCoverMapsNC  = None
# If NC file is not provided, we have to provide the following values:
fracVegCover     = PCRGLOBWB20/input5min/landCover/grassland/vegf_short.map
minSoilDepthFrac = PCRGLOBWB20/input30min/landCover/grassland/minf_short_permafrost.map
maxSoilDepthFrac = PCRGLOBWB20/input30min/landCover/grassland/maxf_short.map
rootFraction1    = PCRGLOBWB20/input5min/landCover/grassland/rfrac1_short.map
rootFraction2    = PCRGLOBWB20/input5min/landCover/grassland/rfrac2_short.map	
maxRootDepth     = PCRGLOBWB20/input5min/landCover/grassland/maxrootdepth_short.map	
#
# Parameters for the Arno's scheme:
arnoBeta = None
# If arnoBeta is defined, the soil water capacity distribution is based on this.
# If arnoBeta is NOT defined, maxSoilDepthFrac must be defined such that arnoBeta will be calculated based on maxSoilDepthFrac and minSoilDepthFrac.

cropCoefficientNC = PCRGLOBWB20/input5min/landCover_v05Jul2013/Global/netcdf/cropCoefficientGrassland.nc
interceptCapNC    = PCRGLOBWB20/input5min/landCover_v05Jul2013/Global/netcdf/interceptCapInputGrassland.nc
coverFractionNC   = PCRGLOBWB20/input5min/landCover_v05Jul2013/Global/netcdf/coverFractionInputGrassland.nc

# initial conditions:
interceptStorIni = /projects/0/wtrcycle/users/edwin/05min_runs_february_2016/pcrglobwb_only_from_1901_4LCs_edwin_parameter_set_natural/no_correction/global/states/interceptStor_grassland_1901-12-31.map
snowCoverSWEIni  = /projects/0/wtrcycle/users/edwin/05min_runs_february_2016/pcrglobwb_only_from_1901_4LCs_edwin_parameter_set_natural/no_correction/global/states/snowCoverSWE_grassland_1901-12-31.map
snowFreeWaterIni = /projects/0/wtrcycle/users/edwin/05min_runs_february_2016/pcrglobwb_only_from_1901_4LCs_edwin_parameter_set_natural/no_correction/global/states/snowFreeWater_grassland_1901-12-31.map
topWaterLayerIni = /projects/0/wtrcycle/users/edwin/05min_runs_february_2016/pcrglobwb_only_from_1901_4LCs_edwin_parameter_set_natural/no_correction/global/states/topWaterLayer_grassland_1901-12-31.map
storUppIni       = /projects/0/wtrcycle/users/edwin/05min_runs_february_2016/pcrglobwb_only_from_1901_4LCs_edwin_parameter_set_natural/no_correction/global/states/storUpp_grassland_1901-12-31.map
storLowIni       = /projects/0/wtrcycle/users/edwin/05min_runs_february_2016/pcrglobwb_only_from_1901_4LCs_edwin_parameter_set_natural/no_correction/global/states/storLow_grassland_1901-12-31.map
interflowIni     = /projects/0/wtrcycle/users/edwin/05min_runs_february_2016/pcrglobwb_only_from_1901_4LCs_edwin_parameter_set_natural/no_correction/global/states/interflow_grassland_1901-12-31.map

[groundwaterOptions]

debugWaterBalance = True

groundwaterPropertiesNC = PCRGLOBWB20/input5min/groundwater/groundwaterProperties5ArcMin.nc

# minimum value for groundwater recession coefficient (day-1)
minRecessionCoeff = 1.0e-4

# some options for constraining groundwater abstraction
limitFossilGroundWaterAbstraction = True
estimateOfRenewableGroundwaterCapacity = 0.0
estimateOfTotalGroundwaterThickness    = /projects/0/dfguu/users/edwin/data/aquifer_properties/thickness_05min.map
# minimum and maximum total groundwater thickness 
minimumTotalGroundwaterThickness       = 100.
maximumTotalGroundwaterThickness       = 1000.

# initial conditions for pumping behaviors
avgNonFossilGroundwaterAllocationLongIni  = 0.0
avgNonFossilGroundwaterAllocationShortIni = 0.0
avgTotalGroundwaterAbstractionIni         = 0.0
avgTotalGroundwaterAllocationLongIni      = 0.0
avgTotalGroundwaterAllocationShortIni     = 0.0
#
# initial conditions for MODFLOW run
storGroundwaterIni                        = /scratch-shared/edwin/05min_runs_may_2016/pcrglobwb_modflow_from_1901_4LCs_edwin_parameter_set/no_correction/natural_steady-state//modflow//steady-state_only/maps/storGroundwater_1901-01-01.ini.map
storGroundwaterFossilIni                  = 0.0
relativeGroundwaterHeadIni                = /scratch-shared/edwin/05min_runs_may_2016/pcrglobwb_modflow_from_1901_4LCs_edwin_parameter_set/no_correction/natural_steady-state//modflow//steady-state_only/maps/relativeGroundwaterHead_1901-01-01.ini.map
baseflowIni                               = /scratch-shared/edwin/05min_runs_may_2016/pcrglobwb_modflow_from_1901_4LCs_edwin_parameter_set/no_correction/natural_steady-state//modflow//steady-state_only/maps/baseflow_1901-01-01.ini.map

# assumption for the minimum transmissivity value (unit: m2/day) that can be extracted (via capillary rise and/or groundwater abstraction) 
minTransimissivityForProductiveAquifer = 50.0
# - if None, abstraction and/or capillary rise can always occur everywhere and unlimited
# - TODO: Shall we also defined the minimum value for storage coefficient?

[modflowParameterOptions]

# number of modflow layers:
number_of_layers = 2

# confining layer properties (thickness in meter, maximum vertical conductivity in m/day, maximum resistance in day) 
usePreDefinedConfiningLayer               = True
confiningLayerThickness                   = /projects/0/dfguu/users/edwin/data/inge_confining_layer_parameters/confining_layer_thickness_edwin.map
maximumConfiningLayerVerticalConductivity = 0.001
maximumConfiningLayerResistance           = 20000.

# TODO: Define aquifer specific yield/storage coefficient value for each layer 
# TODO: Define aquifer conductivity values for each layer 
# - At this moment, aquifer parameters for MODFLOW (specific yield/storage coefficient and conductivity values) are
#   based on "groundwaterOptions" (e.g. "groundwaterPropertiesNC" and "estimateOfTotalGroundwaterThickness").  

# minimum and maximum values for transmissivities (unit: m/day)
minTransmissivity = 10.0
maxTransmissivity = 750.

# netcdf files contain the information about elevations and channel/routing parameters
# - these files would be used to convert discharge to surface water elevation 
topographyNC = /projects/0/dfguu/users/edwin/data/floodplain_05arcmin_world_final/based_on_daily_runoff/topography_parameters_5_arcmin_october_2015.nc
channelNC    = /projects/0/dfguu/users/edwin/data/floodplain_05arcmin_world_final/based_on_daily_runoff/channel_parameters_5_arcmin_october_2015.nc
# - the manning coefficient used for converting discharge values to surface water elevation values
manningsN = 0.04
# - lake and reservoir parameters
waterBodyInputNC = PCRGLOBWB20/input5min/routing/reservoirs/waterBodiesFinal_version15Sept2013/maps/waterBodies5ArcMin.nc
# - option to ignore reservoirs (using only natural water bodies)
onlyNaturalWaterBodies = True

# assumption for the thickness/depth (m) of accessible groundwater (needed for coupling to PCR-GLOBWB)  
accessibleDepth = 1000.

# option to ignore negative capillary rise during MODFLOW simulation
ignoreCapRise = False

[modflowTransientInputOptions]

# the following is None for an online coupling between PCR-GLOBWB and MODFLOW
dischargeInputNC               = None
groundwaterRechargeInputNC     = None
groundwaterAbstractionInputNC  = None
channelStorageInputNC          = None

usingPredefinedInitialHead = True
# - if False, the initial groundwater head(s) will be based on the steady state simulation using the input defined in modflowSteadyStateInputOptions 
# - if True , the following initial conditions of the groundwater head will be based on the steady state simulation using the input defined in modflowSteadyStateInputOptions 
# - Note: For the online coupling PCR-GLOBWB-MODFLOW, we have to first define the initial conditions of groundwater head (usingPredefinedInitialHead = True)

# initial conditions for groundwater head (unit: m)
groundwaterHeadLayer1Ini = /scratch-shared/edwin/05min_runs_may_2016/pcrglobwb_modflow_from_1901_4LCs_edwin_parameter_set/no_correction/natural_steady-state//modflow//steady-state_only/states/groundwaterHeadLayer1_1901-01-01.ini.map
groundwaterHeadLayer2Ini = /scratch-shared/edwin/05min_runs_may_2016/pcrglobwb_modflow_from_1901_4LCs_edwin_parameter_set/no_correction/natural_steady-state//modflow//steady-state_only/states/groundwaterHeadLayer2_1901-01-01.ini.map

[routingOptions]

debugWaterBalance = True

lddMap      = PCRGLOBWB20/input5min/routing/lddsound_05min.map
cellAreaMap = PCRGLOBWB20/input5min/routing/cellsize05min.correct.map
#~ gradient    = PCRGLOBWB20/input5min/routing/slope05min.map
gradient    = /projects/0/dfguu/users/edwin/data/floodplain_05arcmin_world_final/based_on_daily_runoff/map/channel_gradient.map

# manning coefficient
manningsN   = 0.04

# manning coefficient for floodplain
floodplainManningsN= 0.07

# routing method: (options are kinematicWave, simplifiedKinematicWave and accuTravelTime)
routingMethod = accuTravelTime
#~ routingMethod = kinematicWave

# Option for flood plain simulation
dynamicFloodPlain = True

# constant channel width (optional)
#~ constantChannelWidth = None
constantChannelWidth = /projects/0/dfguu/users/edwin/data/floodplain_05arcmin_world_final/based_on_daily_runoff/map/bankfull_width.map

# minimum channel width (optional)
#~ minimumChannelWidth  = None
minimumChannelWidth  = /projects/0/dfguu/users/edwin/data/floodplain_05arcmin_world_final/based_on_daily_runoff/map/bankfull_width.map

# constant channel depth 
constantChannelDepth = /projects/0/dfguu/users/edwin/data/floodplain_05arcmin_world_final/based_on_daily_runoff/map/bankfull_depth.map

# files for relative elevation (above minimum dem) 
relativeElevationFiles  = /projects/0/dfguu/users/edwin/data/floodplain_05arcmin_world_final/based_on_daily_runoff/map/dzRel%04d.map
relativeElevationLevels = 0.0, 0.01, 0.05, 0.10, 0.20, 0.30, 0.40, 0.50, 0.60, 0.70, 0.80, 0.90, 1.00
# TODO: Define a netcdf file 

# Channel properties for flooding
bankfullCapacity = None
# - If None, it will be estimated from (bankfull) channel depth (m) and width (m) 

# lake and reservoir parameters
waterBodyInputNC = PCRGLOBWB20/input5min/routing/reservoirs/waterBodiesFinal_version15Sept2013/maps/waterBodies5ArcMin.nc
onlyNaturalWaterBodies = True

# composite crop factors for WaterBodies: 
cropCoefficientWaterNC = PCRGLOBWB20/input30min/routing/cropCoefficientForOpenWater.nc
minCropWaterKC         = 1.00

# number of days (timesteps) that have been performed for spinning up initial conditions in the routing module (i.e. channelStorageIni, avgDischargeLongIni, avgDischargeShortIni, etc.)
timestepsToAvgDischargeIni     =  /projects/0/wtrcycle/users/edwin/05min_runs_february_2016/pcrglobwb_only_from_1901_4LCs_edwin_parameter_set_natural/no_correction/global/states/timestepsToAvgDischarge_1901-12-31.map
# Note that: 
# - maximum number of days (timesteps) to calculate long term average flow values (default: 5 years = 5 * 365 days = 1825)
# - maximum number of days (timesteps) to calculate short term average values (default: 1 month = 1 * 30 days = 30)

# initial conditions:
waterBodyStorageIni            =  /projects/0/wtrcycle/users/edwin/05min_runs_february_2016/pcrglobwb_only_from_1901_4LCs_edwin_parameter_set_natural/no_correction/global/states/waterBodyStorage_1901-12-31.map
channelStorageIni              =  /projects/0/wtrcycle/users/edwin/05min_runs_february_2016/pcrglobwb_only_from_1901_4LCs_edwin_parameter_set_natural/no_correction/global/states/channelStorage_1901-12-31.map
readAvlChannelStorageIni       =  /projects/0/wtrcycle/users/edwin/05min_runs_february_2016/pcrglobwb_only_from_1901_4LCs_edwin_parameter_set_natural/no_correction/global/states/readAvlChannelStorage_1901-12-31.map
avgDischargeLongIni            =  /projects/0/wtrcycle/users/edwin/05min_runs_february_2016/pcrglobwb_only_from_1901_4LCs_edwin_parameter_set_natural/no_correction/global/states/avgDischargeLong_1901-12-31.map
avgDischargeShortIni           =  /projects/0/wtrcycle/users/edwin/05min_runs_february_2016/pcrglobwb_only_from_1901_4LCs_edwin_parameter_set_natural/no_correction/global/states/avgDischargeShort_1901-12-31.map
m2tDischargeLongIni            =  /projects/0/wtrcycle/users/edwin/05min_runs_february_2016/pcrglobwb_only_from_1901_4LCs_edwin_parameter_set_natural/no_correction/global/states/m2tDischargeLong_1901-12-31.map
avgBaseflowLongIni             =  /projects/0/wtrcycle/users/edwin/05min_runs_february_2016/pcrglobwb_only_from_1901_4LCs_edwin_parameter_set_natural/no_correction/global/states/avgBaseflowLong_1901-12-31.map
riverbedExchangeIni            =  /projects/0/wtrcycle/users/edwin/05min_runs_february_2016/pcrglobwb_only_from_1901_4LCs_edwin_parameter_set_natural/no_correction/global/states/riverbedExchange_1901-12-31.map
#
# initial condition of sub-time step discharge (needed for estimating number of time steps in kinematic wave methods)
subDischargeIni                =  /projects/0/wtrcycle/users/edwin/05min_runs_february_2016/pcrglobwb_only_from_1901_4LCs_edwin_parameter_set_natural/no_correction/global/states/subDischarge_1901-12-31.map
#
avgLakeReservoirInflowShortIni =  /projects/0/wtrcycle/users/edwin/05min_runs_february_2016/pcrglobwb_only_from_1901_4LCs_edwin_parameter_set_natural/no_correction/global/states/avgLakeReservoirInflowShort_1901-12-31.map
avgLakeReservoirOutflowLongIni =  /projects/0/wtrcycle/users/edwin/05min_runs_february_2016/pcrglobwb_only_from_1901_4LCs_edwin_parameter_set_natural/no_correction/global/states/avgLakeReservoirOutflowLong_1901-12-31.map


[reportingForModflowOptions]

# output files from modflow calculation that will be written in the disk in netcdf files:
outMonthEndNC = groundwaterHead,groundwaterHeadLayer1,groundwaterDepthLayer1,groundwaterHeadLayer2,groundwaterDepthLayer2,relativeGroundwaterHead,groundwaterVolumeEstimate,groundwaterThicknessEstimate
outAnnuaEndNC = None
# netcdf format and zlib setup
formatNetCDF = NETCDF4
zlib = True

# At this moment, we cannot report the following. 
outDailyTotNC = None
outMonthTotNC = None
outMonthAvgNC = None
outAnnuaTotNC = None
outAnnuaAvgNC = None

[reportingOptions]

# output files that will be written in the disk in netcdf files:
outDailyTotNC = None
outMonthTotNC = totalEvaporation,waterBodyActEvaporation,actualET,precipitation,gwRecharge,runoff,totalRunoff,baseflow,directRunoff,interflowTotal
outMonthAvgNC = discharge,dynamicFracWat,floodVolume,floodDepth,surfaceWaterStorage,interceptStor,snowFreeWater,snowCoverSWE,topWaterLayer,storUppTotal,storLowTotal,storGroundwater,storGroundwaterFossil,totalActiveStorageThickness,totalWaterStorageThickness,satDegUpp,satDegLow,channelStorage,waterBodyStorage,fractionTotalEvaporation
outMonthEndNC = storGroundwater,storGroundwaterFossil,waterBodyStorage,channelStorage,totalWaterStorageThickness,totalActiveStorageThickness
outAnnuaTotNC = precipitation,referencePotET,gwRecharge,totalRunoff,baseflow,totalEvaporation,runoff,actualET
outAnnuaAvgNC = temperature,discharge,surfaceWaterStorage,waterBodyStorage,interceptStor,snowFreeWater,snowCoverSWE,topWaterLayer,storUppTotal,storLowTotal,storGroundwater,storGroundwaterFossil,totalWaterStorageThickness,satDegUpp,satDegLow,channelStorage,waterBodyStorage,fractionWaterBodyEvaporation,fractionTotalEvaporation
outAnnuaEndNC = surfaceWaterStorage,interceptStor,snowFreeWater,snowCoverSWE,topWaterLayer,storUppTotal,storLowTotal,storGroundwater,storGroundwaterFossil,waterBodyStorage,channelStorage,totalWaterStorageThickness,totalActiveStorageThickness
# netcdf format and zlib setup
formatNetCDF = NETCDF4
zlib = True

[mergingOutputOptions]

# output variables/files that will be merged:
outDailyTotNC = None
outMonthTotNC = totalEvaporation,precipitation,gwRecharge,totalRunoff
outMonthAvgNC = discharge,surfaceWaterStorage,interceptStor,snowFreeWater,snowCoverSWE,topWaterLayer,storUppTotal,storLowTotal,storGroundwater,totalWaterStorageThickness
outMonthEndNC = storGroundwater,totalWaterStorageThickness
outAnnuaTotNC = totalEvaporation,precipitation,gwRecharge,totalRunoff 
outAnnuaAvgNC = discharge,surfaceWaterStorage,interceptStor,snowFreeWater,snowCoverSWE,topWaterLayer,storUppTotal,storLowTotal,storGroundwater,totalWaterStorageThickness,temperature
outAnnuaEndNC = storGroundwater,totalWaterStorageThickness
# netcdf format and zlib setup
formatNetCDF = NETCDF4
zlib = True

delete_unmerged_pcraster_maps = False
