[globalOptions]

# Set the pcrglobwb output directory in an absolute path.
outputDir   = /scratch-shared/edwinhs/pcrglobwb2_output_africa/tanzania_chirps-precipitation_era-5-land-penman-monteith-et0/test_30sec_using_input_version_version_2019_12_11/

# Set the input directory map in an absolute path. 
# - The input forcing and parameter directories and files will be relative to this.
inputDir    = /scratch-shared/edwinswt/data/pcrglobwb2_input_arise/tanzania_version_2019_12_11/pcrglobwb2_input/

# Map of clone (must be provided in PCRaster maps)
# - Spatial resolution and coverage are based on this map:
cloneMap    = tanzania_30sec/cloneMaps/ghana_tanzania_uganda_zimbabwe/clone_tanzania_194_basin.map
 
# The area/landmask of interest:
# If None, area/landmask is limited for cells with ldd value. 
landmask    = tanzania_30sec/cloneMaps/ghana_tanzania_uganda_zimbabwe/mask_tanzania_194_basin.map

# netcdf attributes for output files:
institution = Department of Physical Geography, Utrecht University
title       = PCR-GLOBWB 2 output (not coupled to MODFLOW), with human factors (non-natural)
description = by Edwin H. Sutanudjaja (contact: e.h.sutanudjaja@uu.nl), PCR-GLOBWB run with human factors (non-natural) at 30 arcsec resolution


startTime = 2000-01-01
endTime   = 2000-12-31
# Format: YYYY-MM-DD ; The model runs on daily time step.


# spinning up options:
maxSpinUpsInYears = 3
minConvForSoilSto = 0.0
minConvForGwatSto = 0.0
minConvForChanSto = 0.0
minConvForTotlSto = 0.0

# option/directory for saving the spin-up directory 
spinUpOutputDir = True


[meteoOptions]

#~ # Set the forcing temperature and precipitation files (relative to inputDir)
#~ precipitationNC = global_30min/meteo/forcing/daily_precipitation_cru_era-interim_1979_to_2010.nc
#~ temperatureNC   = global_30min/meteo/forcing/daily_temperature_cru_era-interim_1979_to_2010.nc
#~ 
#~ # Method to calculate referencePotETP (reference potential evaporation+transpiration)
#~ # options are "Hamon" and "Input" ; If "Input", the netcdf input file must be given:
#~ referenceETPotMethod = Input
#~ refETPotFileNC = global_30min/meteo/forcing/daily_referencePotET_cru_era-interim_1979_to_2010.nc

#~ # Set the forcing temperature and precipitation files (relative to inputDir)
#~ precipitationNC = https://opendap.4tu.nl/thredds/dodsC/data2/pcrglobwb/version_2019_11_beta/pcrglobwb2_input/global_30min/meteo/forcing/daily_precipitation_cru_era-interim_1979_to_2010.nc                 
#~ temperatureNC   = https://opendap.4tu.nl/thredds/dodsC/data2/pcrglobwb/version_2019_11_beta/pcrglobwb2_input/global_30min/meteo/forcing/daily_temperature_cru_era-interim_1979_to_2010.nc
#~ 
#~ # Method to calculate referencePotETP (reference potential evaporation+transpiration)
#~ # options are "Hamon" and "Input" ; If "Input", the netcdf input file must be given:
#~ referenceETPotMethod = Input
#~ refETPotFileNC = https://opendap.4tu.nl/thredds/dodsC/data2/pcrglobwb/version_2019_11_beta/pcrglobwb2_input/global_30min/meteo/forcing/daily_referencePotET_cru_era-interim_1979_to_2010.nc

# Set the forcing temperature and precipitation files (relative to inputDir)
#~ precipitationNC = /scratch-shared/edwinhs/meteo_arise/tanzania/version_2020-03-12_test-edwin-only-2000/era5-land/150_arcsec/tanzania_era5-land_total-preci_2000-2000/tanzania_era5-land_total-preci_2000-2000_rempacon-150-arcsec_daily.nc
precipitationNC = /scratch-shared/edwinhs/meteo_arise/tanzania/version_2020-03-09/chirps_precipitation/150_arcsec/tanzania_chirps-v2.0_1981-2019_p05_rempacon-150-arcsec_daily.nc
temperatureNC   = /scratch-shared/edwinhs/meteo_arise/tanzania/version_2020-03-12_test-edwin-only-2000/era5-land/150_arcsec/tanzania_era5-land_t2m-average_2000-2000/tanzania_era5-land_t2m-average_2000-2000_rempacon-150-arcsec_daily.nc

# Method to calculate referencePotETP (reference potential evaporation+transpiration)
# options are "Hamon" and "Input" ; If "Input", the netcdf input file must be given:
referenceETPotMethod = Penman-Monteith
refETPotFileNC       = None

# variable names in the forcing files (optional)
#~ precipitationVariableName = tp
precipitationVariableName    = precip
temperatureVariableName      = t2m
#~ referenceEPotVariableName = potentialEvaporation

# conversion constants and factors to correct forcing values (optional) so that the units are in m.day-1 and degree Celcius                                                                                                           
precipitationConstant    = 0.0
precipitationFactor      = 0.001
temperatureConstant      = -273.15
temperatureFactor        = 1.0
#~ referenceEPotConstant = 0.0
#~ referenceEPotFactor   = 1.0


# extra meteo variables for calculating reference potential evaporation based on Penman-Monteith (optional)
#
# - 10 m wind speed, unit: m.s-1
wind_speed_10m           = None
# - if wind_speed_10m is None, it will be estimated from u and v components
wind_speed_10m_u_comp    = /scratch-shared/edwinhs/meteo_arise/tanzania/version_2020-03-12_test-edwin-only-2000/era5-land/150_arcsec/tanzania_era5-land_u10-average_2000-2000/tanzania_era5-land_u10-average_2000-2000_rempacon-150-arcsec_daily.nc
wind_speed_10m_v_comp    = /scratch-shared/edwinhs/meteo_arise/tanzania/version_2020-03-12_test-edwin-only-2000/era5-land/150_arcsec/tanzania_era5-land_v10-average_2000-2000/tanzania_era5-land_v10-average_2000-2000_rempacon-150-arcsec_daily.nc
#
# - atmospheric pressure, unit: Pascal
atmospheric_pressure        = /scratch-shared/edwinhs/meteo_arise/tanzania/version_2020-03-12_test-edwin-only-2000/era5-land/150_arcsec/tanzania_era5-land_spressu-avg_2000-2000/tanzania_era5-land_spressu-avg_2000-2000_rempacon-150-arcsec_daily.nc
#
# - extraterestrial radiation, unit: J.m-2.day-1
extraterestrial_radiation  = None
# - if extraterestrial_radiation is None, it will be calculated based on day length, latitude, day angle and day length

# - actual shortwave (solar) radiation, unit: J.m-2.day-1
shortwave_radiation        = None
#/scratch-shared/edwinhs/pcrglobwb2_output_africa/tanzania_era-5-land_develop-penman-montheith/test_30sec/
# - if shortwave_radiation = None, actual shortwave (solar) radiation can be estimated from net radiation and albedo: ssrd = ssr / (1 - albedo) 
surface_net_solar_radiation = /scratch-shared/edwinhs/meteo_arise/tanzania/version_2020-03-12_test-edwin-only-2000/era5-land/150_arcsec/tanzania_era5-land_ssr-average_2000-2000/tanzania_era5-land_ssr-average_2000-2000_rempacon-150-arcsec_daily.nc
albedo                      = /scratch-shared/edwinhs/meteo_arise/tanzania/version_2020-03-12_test-edwin-only-2000/era5-land/150_arcsec/tanzania_era5-land_fal-average_2000-2000/tanzania_era5-land_fal-average_2000-2000_rempacon-150-arcsec_daily.nc
#
# - 2 m dew point temperature (average), unit: degree Celcius  
dewpoint_temperature_avg = /scratch-shared/edwinhs/meteo_arise/tanzania/version_2020-03-12_test-edwin-only-2000/era5-land/150_arcsec/tanzania_era5-land_d2m-average_2000-2000/tanzania_era5-land_d2m-average_2000-2000_rempacon-150-arcsec_daily.nc
#

# conversion constants and factors to correct forcing values (optional) so that the units are in m.day-1 (precipitation), degree Celcius (temperature), Pascal (pressure), m.s-1, and J.m-2.day-1 (radiation)
consta_for_dewpoint_temperature_avg = -273.15                                                                                                      
factor_for_dewpoint_temperature_avg = 1.0 

cellAreaMap = tanzania_30sec/routing/ldd_and_cell_area/cellsize30sec.nc

#~ # option to call the meteo/forcing method only
#~ callMeteoOnly = True
# - TODO under development


#~ # - for debugging
#~ outDailyTotNC = precipitation_before_downscaling,temperature_before_downscaling,referencePotET_before_downscaling        
#~ outMonthTotNC = None 
#~ outMonthAvgNC = precipitation_before_downscaling,temperature_before_downscaling,referencePotET_before_downscaling,temperature,precipitation,referencePotET
#~ outMonthEndNC = None
#~ outAnnuaTotNC = None
#~ outAnnuaAvgNC = None
#~ outAnnuaEndNC = None


[meteoDownscalingOptions]
                                                                                                                                        
downscalePrecipitation  = False                                                                                                                                   
downscaleTemperature    = True                                                                                                                                  
downscaleReferenceETPot = False                                                                                                                                   
   
# downscaling (based on the digital elevation model):                                                                                                            
highResolutionDEM = tanzania_30sec/landSurface/topography/tanzania_merit_dem_30sec/tanzania_merit_dem_30sec.nc

# The downscaling will be performed by providing the "cellIds" (meteoDownscaleIds) of lower resolution cells.                                                    
meteoDownscaleIds = /scratch-shared/edwinhs/meteo_arise/tanzania/version_2020-03-12_test-edwin-only-2000/era5-land/150_arcsec/tanzania_era5-land_t2m-average_2000-2000/unique_ids_150sec.map                                                                      
   
# lapse rates:                                                                                                                                                   
temperLapseRateNC = tanzania_05min/meteo/downscaling_from_30min/temperature_slope.nc                                                                     
precipLapseRateNC = tanzania_05min/meteo/downscaling_from_30min/precipitation_slope.nc                                                                   
                                                                                                                                                                 
# downscaling criteria (TODO: remove these):                                                                                                                     
temperatCorrelNC  = tanzania_05min/meteo/downscaling_from_30min/temperature_correl.nc                                                                     
precipitCorrelNC  = tanzania_05min/meteo/downscaling_from_30min/precipitation_correl.nc                                                                   
                                                                                                                                                                 
# windows length (unit: arc-degree) for smoothing/averaging forcing data (not recommended):                                                                      
smoothingWindowsLength = 0


[landSurfaceOptions]

debugWaterBalance = True

numberOfUpperSoilLayers = 2

# soil and parameters
# - they are used for all land cover types, unless they are are defined in certain land cover type options 
#   (e.g. different/various soil types for agriculture areas)  
topographyNC     = tanzania_05min/landSurface/topography/topography_parameters_5_arcmin_october_2015.nc
soilPropertiesNC = tanzania_05min/landSurface/soil/soilProperties5ArcMin.nc

includeIrrigation = True

# netcdf time series for historical expansion of irrigation areas (unit: hectares). 
# Note: The resolution of this map must be consisten with the resolution of cellArea. 
historicalIrrigationArea = tanzania_05min/waterUse/irrigation/irrigated_areas/irrigationArea05ArcMin.nc

# a pcraster map/value defining irrigation efficiency (dimensionless) - optional
irrigationEfficiency     = tanzania_30min/waterUse/irrigation/irrigation_efficiency/efficiency.nc


includeDomesticWaterDemand  = True
includeIndustryWaterDemand  = True
includeLivestockWaterDemand = True

# domestic, industrial and livestock water demand data (unit must be in m.day-1)
domesticWaterDemandFile  = tanzania_05min/waterUse/waterDemand/domestic/domestic_water_demand_version_april_2015.nc
industryWaterDemandFile  = tanzania_05min/waterUse/waterDemand/industry/industry_water_demand_version_april_2015.nc
livestockWaterDemandFile = tanzania_05min/waterUse/waterDemand/livestock/livestock_water_demand_version_april_2015.nc


# desalination water supply (maximum/potential/capacity)
desalinationWater = tanzania_05min/waterUse/desalination/desalination_water_version_april_2015.nc


# zone IDs (scale) at which allocations of groundwater and surface water (as well as desalinated water) are performed  
allocationSegmentsForGroundSurfaceWater = tanzania_05min/waterUse/abstraction_zones/abstraction_zones_60min_05min.nc


# pcraster maps defining the partitioning of groundwater - surface water source 
#
# - predefined surface water - groundwater partitioning for irrigation demand (e.g. based on Siebert, Global Map of Irrigation Areas version 5)
irrigationSurfaceWaterAbstractionFractionData           = tanzania_05min/waterUse/source_partitioning/surface_water_fraction_for_irrigation/AEI_SWFRAC.nc
# -- quality map
irrigationSurfaceWaterAbstractionFractionDataQuality    = tanzania_05min/waterUse/source_partitioning/surface_water_fraction_for_irrigation/AEI_QUAL.nc
#
# - threshold values defining the preference for surface water source for irrigation purpose
# -- treshold to maximize surface water irrigation use (cells with irrSurfaceWaterAbstractionFraction above this will prioritize irrigation surface water use)
treshold_to_maximize_irrigation_surface_water           = 0.50
# -- treshold to minimize fossil water withdrawal for irrigation (cells with irrSurfaceWaterAbstractionFraction below this have no fossil withdrawal for irrigation)
treshold_to_minimize_fossil_groundwater_irrigation      = 0.70
#
# - predefined surface water - groundwater partitioning for non irrigation demand (e.g. based on McDonald, 2014)
maximumNonIrrigationSurfaceWaterAbstractionFractionData = tanzania_30min/waterUse/source_partitioning/surface_water_fraction_for_non_irrigation/max_city_sw_fraction.nc

# option to skip extrapolation
noParameterExtrapolation = True


[forestOptions]

name = forest
debugWaterBalance = True

# snow module properties
snowModuleType      =  Simple
freezingT           =  0.0
degreeDayFactor     =  0.0025
snowWaterHoldingCap =  0.1
refreezingCoeff     =  0.05

# other paramater values
minTopWaterLayer  = 0.0
minCropKC         = 0.2

cropCoefficientNC = tanzania_05min/landSurface/landCover/naturalTall/cropCoefficientForest.nc
interceptCapNC    = tanzania_05min/landSurface/landCover/naturalTall/interceptCapInputForest.nc
coverFractionNC   = tanzania_05min/landSurface/landCover/naturalTall/coverFractionInputForest.nc

landCoverMapsNC   = None
# If NC file is not provided, we have to provide the following pcraster maps:
fracVegCover      = tanzania_05min/landSurface/landCover/naturalTall/vegf_tall.nc
minSoilDepthFrac  = tanzania_30min/landSurface/landCover/naturalTall/minf_tall_permafrost.nc
maxSoilDepthFrac  = tanzania_30min/landSurface/landCover/naturalTall/maxf_tall.nc
rootFraction1     = tanzania_05min/landSurface/landCover/naturalTall/rfrac1_tall.nc
rootFraction2     = tanzania_05min/landSurface/landCover/naturalTall/rfrac2_tall.nc	
maxRootDepth      = 1.0
# Note: The maxRootDepth is not used for non irrigated land cover type. 	
#
# Parameters for the Arno's scheme:
arnoBeta = None
# If arnoBeta is defined, the soil water capacity distribution is based on this.
# If arnoBeta is NOT defined, maxSoilDepthFrac must be defined such that arnoBeta will be calculated based on maxSoilDepthFrac and minSoilDepthFrac.

# initial conditions:
interceptStorIni = tanzania_30sec/initialConditions/first_test/interceptStor_forest_2000-12-31.map
snowCoverSWEIni  = tanzania_30sec/initialConditions/first_test/snowCoverSWE_forest_2000-12-31.map
snowFreeWaterIni = tanzania_30sec/initialConditions/first_test/snowFreeWater_forest_2000-12-31.map
topWaterLayerIni = tanzania_30sec/initialConditions/first_test/topWaterLayer_forest_2000-12-31.map
storUppIni       = tanzania_30sec/initialConditions/first_test/storUpp_forest_2000-12-31.map
storLowIni       = tanzania_30sec/initialConditions/first_test/storLow_forest_2000-12-31.map
interflowIni     = tanzania_30sec/initialConditions/first_test/interflow_forest_2000-12-31.map

noParameterExtrapolation = True

[grasslandOptions]

name = grassland
debugWaterBalance = True

# snow module properties
snowModuleType      =  Simple
freezingT           =  0.0
degreeDayFactor     =  0.0025
snowWaterHoldingCap =  0.1
refreezingCoeff     =  0.05

# other paramater values
minTopWaterLayer = 0.0
minCropKC        = 0.2

cropCoefficientNC = tanzania_05min/landSurface/landCover/naturalShort/cropCoefficientGrassland.nc
interceptCapNC    = tanzania_05min/landSurface/landCover/naturalShort/interceptCapInputGrassland.nc
coverFractionNC   = tanzania_05min/landSurface/landCover/naturalShort/coverFractionInputGrassland.nc

landCoverMapsNC   = None
# If NC file is not provided, we have to provide the following values:
fracVegCover      = tanzania_05min/landSurface/landCover/naturalShort/vegf_short.nc
minSoilDepthFrac  = tanzania_30min/landSurface/landCover/naturalShort/minf_short_permafrost.nc
maxSoilDepthFrac  = tanzania_30min/landSurface/landCover/naturalShort/maxf_short.nc
rootFraction1     = tanzania_05min/landSurface/landCover/naturalShort/rfrac1_short.nc
rootFraction2     = tanzania_05min/landSurface/landCover/naturalShort/rfrac2_short.nc	
maxRootDepth      = 0.5
# Note: The maxRootDepth is not used for non irrigated land cover type. 	
#
# Parameters for the Arno's scheme:
arnoBeta = None
# If arnoBeta is defined, the soil water capacity distribution is based on this.
# If arnoBeta is NOT defined, maxSoilDepthFrac must be defined such that arnoBeta will be calculated based on maxSoilDepthFrac and minSoilDepthFrac.

# initial conditions:
interceptStorIni = tanzania_30sec/initialConditions/first_test/interceptStor_grassland_2000-12-31.map
snowCoverSWEIni  = tanzania_30sec/initialConditions/first_test/snowCoverSWE_grassland_2000-12-31.map
snowFreeWaterIni = tanzania_30sec/initialConditions/first_test/snowFreeWater_grassland_2000-12-31.map
topWaterLayerIni = tanzania_30sec/initialConditions/first_test/topWaterLayer_grassland_2000-12-31.map
storUppIni       = tanzania_30sec/initialConditions/first_test/storUpp_grassland_2000-12-31.map
storLowIni       = tanzania_30sec/initialConditions/first_test/storLow_grassland_2000-12-31.map
interflowIni     = tanzania_30sec/initialConditions/first_test/interflow_grassland_2000-12-31.map

noParameterExtrapolation = True

[irrPaddyOptions]

name = irrPaddy
debugWaterBalance = True

# snow module properties
snowModuleType      =  Simple
freezingT           =  0.0
degreeDayFactor     =  0.0025
snowWaterHoldingCap =  0.1
refreezingCoeff     =  0.05
#
landCoverMapsNC  = None
# If NC file is not provided, we have to provide the following values:
fracVegCover     = tanzania_05min/landSurface/landCover/irrPaddy/fractionPaddy.nc
minSoilDepthFrac = tanzania_30min/landSurface/landCover/irrPaddy/minf_paddy_permafrost.nc
maxSoilDepthFrac = tanzania_30min/landSurface/landCover/irrPaddy/maxf_paddy.nc
rootFraction1    = tanzania_30min/landSurface/landCover/irrPaddy/rfrac1_paddy.nc
rootFraction2    = tanzania_30min/landSurface/landCover/irrPaddy/rfrac2_paddy.nc
maxRootDepth     = 0.5
#
# Parameters for the Arno's scheme:
arnoBeta = None
# If arnoBeta is defined, the soil water capacity distribution is based on this.
# If arnoBeta is NOT defined, maxSoilDepthFrac must be defined such that arnoBeta will be calculated based on maxSoilDepthFrac and minSoilDepthFrac.
#
# other paramater values
minTopWaterLayer = 0.05
minCropKC        = 0.2
cropDeplFactor   = 0.2
minInterceptCap  = 0.0002

cropCoefficientNC = tanzania_30min/landSurface/landCover/irrPaddy/Global_CropCoefficientKc-IrrPaddy_30min.nc

# initial conditions:
interceptStorIni = tanzania_30sec/initialConditions/first_test/interceptStor_irrPaddy_2000-12-31.map
snowCoverSWEIni  = tanzania_30sec/initialConditions/first_test/snowCoverSWE_irrPaddy_2000-12-31.map
snowFreeWaterIni = tanzania_30sec/initialConditions/first_test/snowFreeWater_irrPaddy_2000-12-31.map
topWaterLayerIni = tanzania_30sec/initialConditions/first_test/topWaterLayer_irrPaddy_2000-12-31.map
storUppIni       = tanzania_30sec/initialConditions/first_test/storUpp_irrPaddy_2000-12-31.map
storLowIni       = tanzania_30sec/initialConditions/first_test/storLow_irrPaddy_2000-12-31.map
interflowIni     = tanzania_30sec/initialConditions/first_test/interflow_irrPaddy_2000-12-31.map

noParameterExtrapolation = True

[irrNonPaddyOptions]

name = irrNonPaddy
debugWaterBalance = True

# snow module properties
snowModuleType      =  Simple
freezingT           =  0.0
degreeDayFactor     =  0.0025
snowWaterHoldingCap =  0.1
refreezingCoeff     =  0.05
#
landCoverMapsNC  = None
# If NC file is not provided, we have to provide the following values:
fracVegCover     = tanzania_05min/landSurface/landCover/irrNonPaddy/fractionNonPaddy.nc
minSoilDepthFrac = tanzania_30min/landSurface/landCover/irrNonPaddy/minf_nonpaddy_permafrost.nc
maxSoilDepthFrac = tanzania_30min/landSurface/landCover/irrNonPaddy/maxf_nonpaddy.nc
rootFraction1    = tanzania_30min/landSurface/landCover/irrNonPaddy/rfrac1_nonpaddy.nc
rootFraction2    = tanzania_30min/landSurface/landCover/irrNonPaddy/rfrac2_nonpaddy.nc
maxRootDepth     = 1.0
#
# Parameters for the Arno's scheme:
arnoBeta = None
# If arnoBeta is defined, the soil water capacity distribution is based on this.
# If arnoBeta is NOT defined, maxSoilDepthFrac must be defined such that arnoBeta will be calculated based on maxSoilDepthFrac and minSoilDepthFrac.
#
# other paramater values
minTopWaterLayer = 0.0
minCropKC        = 0.2
cropDeplFactor   = 0.5
minInterceptCap  = 0.0002

cropCoefficientNC = tanzania_30min/landSurface/landCover/irrNonPaddy/Global_CropCoefficientKc-IrrNonPaddy_30min.nc

# initial conditions:
interceptStorIni = tanzania_30sec/initialConditions/first_test/interceptStor_irrNonPaddy_2000-12-31.map
snowCoverSWEIni  = tanzania_30sec/initialConditions/first_test/snowCoverSWE_irrNonPaddy_2000-12-31.map
snowFreeWaterIni = tanzania_30sec/initialConditions/first_test/snowFreeWater_irrNonPaddy_2000-12-31.map
topWaterLayerIni = tanzania_30sec/initialConditions/first_test/topWaterLayer_irrNonPaddy_2000-12-31.map
storUppIni       = tanzania_30sec/initialConditions/first_test/storUpp_irrNonPaddy_2000-12-31.map
storLowIni       = tanzania_30sec/initialConditions/first_test/storLow_irrNonPaddy_2000-12-31.map
interflowIni     = tanzania_30sec/initialConditions/first_test/interflow_irrNonPaddy_2000-12-31.map

noParameterExtrapolation = True

[groundwaterOptions]

debugWaterBalance = True

groundwaterPropertiesNC = tanzania_05min/groundwater/properties/groundwaterProperties5ArcMin.nc
# The file will containspecificYield (m3.m-3), kSatAquifer, recessionCoeff (day-1)
#
recessionCoeff    = tanzania_30sec/groundwater/properties/recession_constant.nc
kSatAquifer       = tanzania_30sec/groundwater/properties/conductivity_30sec_adjusted_edwin_m_per_day.nc
#
# - minimum value for groundwater recession coefficient (day-1) 
minRecessionCoeff = 1.0e-4

# some options for constraining groundwater abstraction
limitFossilGroundWaterAbstraction      = True
estimateOfRenewableGroundwaterCapacity = 0.0
estimateOfTotalGroundwaterThickness    = tanzania_05min/groundwater/aquifer_thickness_estimate/thickness_05min.nc
# minimum and maximum total groundwater thickness 
minimumTotalGroundwaterThickness       = 100.
maximumTotalGroundwaterThickness       = None

doNotExtrapolateThickness = True
noParameterExtrapolation = True

# annual pumping capacity for each region (unit: billion cubic meter per year), should be given in a netcdf file
pumpingCapacityNC = tanzania_30min/waterUse/groundwater_pumping_capacity/regional_abstraction_limit.nc

# initial conditions:
storGroundwaterIni                        = tanzania_30sec/initialConditions/first_test/storGroundwater_2000-12-31.map
storGroundwaterFossilIni                  = tanzania_30sec/initialConditions/first_test/storGroundwaterFossil_2000-12-31.map
#
# additional initial conditions for pumping behaviors
avgNonFossilGroundwaterAllocationLongIni  = tanzania_30sec/initialConditions/first_test/avgNonFossilGroundwaterAllocationLong_2000-12-31.map
avgNonFossilGroundwaterAllocationShortIni = tanzania_30sec/initialConditions/first_test/avgNonFossilGroundwaterAllocationShort_2000-12-31.map
avgTotalGroundwaterAbstractionIni         = tanzania_30sec/initialConditions/first_test/avgTotalGroundwaterAbstraction_2000-12-31.map
avgTotalGroundwaterAllocationLongIni      = tanzania_30sec/initialConditions/first_test/avgTotalGroundwaterAllocationLong_2000-12-31.map
avgTotalGroundwaterAllocationShortIni     = tanzania_30sec/initialConditions/first_test/avgTotalGroundwaterAllocationShort_2000-12-31.map
#
# additional initial conditions (needed only for MODFLOW run) 
relativeGroundwaterHeadIni                = tanzania_30sec/initialConditions/first_test/relativeGroundwaterHead_2000-12-31.map
baseflowIni                               = tanzania_30sec/initialConditions/first_test/baseflow_2000-12-31.map

# zonal IDs (scale) at which zonal allocation of groundwater is performed  
allocationSegmentsForGroundwater = tanzania_05min/waterUse/abstraction_zones/abstraction_zones_30min_05min.nc




[routingOptions]

debugWaterBalance = True

# drainage direction map
lddMap      = tanzania_30sec/routing/ldd_and_cell_area/tanzania_hydrosheds_ldd.nc

# cell area (unit: m2)
cellAreaMap = tanzania_30sec/routing/ldd_and_cell_area/cellsize30sec.nc

# routing method:
routingMethod = accuTravelTime

# manning coefficient
manningsN   = 0.04

# Option for flood plain simulation
dynamicFloodPlain = True

# manning coefficient for floodplain
floodplainManningsN = 0.07


# channel gradient
gradient             = tanzania_30sec/routing/channel_properties/slope_m_per_m_from_tanzania_merit_dem_30sec_landmask.nc

# constant channel depth 
constantChannelDepth = tanzania_30sec/routing/channel_properties/channel_depth_from_average_discharge.nc

# constant channel width (optional)
constantChannelWidth = tanzania_30sec/routing/channel_properties/channel_width_from_average_discharge.nc

# minimum channel width (optional)
minimumChannelWidth  = tanzania_30sec/routing/channel_properties/channel_width_from_average_discharge.nc

# channel properties for flooding
bankfullCapacity     = None
# - If None, it will be estimated from (bankfull) channel depth (m) and width (m) 


# files for relative elevation (above minimum dem) 
relativeElevationFiles  = tanzania_05min/routing/channel_properties/dzRel%04d.nc
relativeElevationLevels = 0.0, 0.01, 0.05, 0.10, 0.20, 0.30, 0.40, 0.50, 0.60, 0.70, 0.80, 0.90, 1.00


# composite crop factors for WaterBodies: 
cropCoefficientWaterNC = tanzania_30min/routing/kc_surface_water/cropCoefficientForOpenWater.nc
minCropWaterKC         = 1.00


# lake and reservoir parameters
waterBodyInputNC       = tanzania_05min/routing/surface_water_bodies/waterBodies5ArcMin.nc
onlyNaturalWaterBodies = False


# initial conditions:
waterBodyStorageIni            = tanzania_30sec/initialConditions/first_test/waterBodyStorage_2000-12-31.map
channelStorageIni              = tanzania_30sec/initialConditions/first_test/channelStorage_2000-12-31.map
readAvlChannelStorageIni       = tanzania_30sec/initialConditions/first_test/readAvlChannelStorage_2000-12-31.map
avgDischargeLongIni            = tanzania_30sec/initialConditions/first_test/avgDischargeLong_2000-12-31.map
avgDischargeShortIni           = tanzania_30sec/initialConditions/first_test/avgDischargeShort_2000-12-31.map
m2tDischargeLongIni            = tanzania_30sec/initialConditions/first_test/m2tDischargeLong_2000-12-31.map
avgBaseflowLongIni             = tanzania_30sec/initialConditions/first_test/avgBaseflowLong_2000-12-31.map
riverbedExchangeIni            = tanzania_30sec/initialConditions/first_test/riverbedExchange_2000-12-31.map
#
# initial condition of sub-time step discharge (needed for estimating number of time steps in kinematic wave methods)
subDischargeIni                = tanzania_30sec/initialConditions/first_test/subDischarge_2000-12-31.map
#
avgLakeReservoirInflowShortIni = tanzania_30sec/initialConditions/first_test/avgLakeReservoirInflowShort_2000-12-31.map
avgLakeReservoirOutflowLongIni = tanzania_30sec/initialConditions/first_test/avgLakeReservoirOutflowLong_2000-12-31.map
#
# number of days (timesteps) that have been performed for spinning up initial conditions in the routing module (i.e. channelStorageIni, avgDischargeLongIni, avgDischargeShortIni, etc.)
timestepsToAvgDischargeIni     = tanzania_30sec/initialConditions/first_test/timestepsToAvgDischarge_2000-12-31.map
# Note that: 
# - maximum number of days (timesteps) to calculate long term average flow values (default: 5 years = 5 * 365 days = 1825)
# - maximum number of days (timesteps) to calculate short term average values (default: 1 month = 1 * 30 days = 30)




[reportingOptions]

# output files that will be written in the disk in netcdf files:
# - daily resolution
outDailyTotNC = discharge,totalRunoff,gwRecharge,totalGroundwaterAbstraction,surfaceWaterStorage,temperature,precipitation,referencePotET,satDegUpp,satDegLow
# - monthly resolution