[globalOptions]


# Set the pcrglobwb output directory in an absolute path.
#~ outputDir = MAIN_OUTPUT_DIR

# - PLEASE CHANGE "edwin/brantas" with your own case
outputDir    = /datadrive/pcrglobwb/exercise_own_landmask/edwin/brantas/


# Set the input directory map in an absolute path . 
# - The locations of input parameter files will be relative to the following "inputDir".
# - on azure - under /datadrive
inputDir     = /datadrive/pcrglobwb/pcrglobwb_input/version_2021-09-16/


# Map of clone (must be provided in PCRaster maps)
# - Spatial resolution and coverage are based on this map:
#~ cloneMap  = general/cloneMaps/global_parallelization/mask_M%i.map

# - PLEASE CHANGE this with your own landmask map.
cloneMap     = /home/edwin/landmask/landmask_brantas_05min.map


# The area/landmask of interest:
# If None, area/landmask is limited for cells with ldd value. 
#~ landmask  = None
#~ landmask  = general/cloneMaps/global_parallelization/mask_M%i.map

# - PLEASE CHANGE this with your own landmask.
landmask     = /home/edwin/landmask/landmask_brantas_05min.map


# netcdf attributes for output files:
institution = Department of Physical Geography, Utrecht University
title       = PCR-GLOBWB 2 output (not coupled to MODFLOW), with human factors (non-natural) - version for the WRI Aqueduct project started in 2021 - MAIN_OUTPUT_DIR
description = by Edwin H. Sutanudjaja (contact: e.h.sutanudjaja@uu.nl), PCR-GLOBWB run with human factors (non-natural) at 5 arcmin resolution


# starting and end dates

startTime    = 2000-01-01
endTime      = 2019-12-31


# spinning up options:
maxSpinUpsInYears    = 5
minConvForSoilSto    = 0.0
minConvForGwatSto    = 0.0
minConvForChanSto    = 0.0
minConvForTotlSto    = 0.0

# option/directory for saving the spin-up directory 
spinUpOutputDir = True


# with merging
with_merging    = True
#~ with_merging = False

cloneAreas = Global


[meteoOptions]


#~ (base) edwin@pcrglobwb-azure:/datadrive/pcrglobwb/isimip3a_forcing/copied_on_2021-09-XX/GSWP3-W5E5/merged$ ls -lah
#~ total 477G
#~ drwxrwxr-x 2 pcrglobwb-azure pcrglobwb-azure 4.0K Sep 24 14:43 .
#~ drwxrwxr-x 3 pcrglobwb-azure pcrglobwb-azure   28 Sep 24 14:15 ..
#~ -rw-r--r-- 1 pcrglobwb-azure pcrglobwb-azure 3.5K Sep 24 02:39 cdo_mergetime_and_monavg.sh
#~ -rw-r--r-- 1 pcrglobwb-azure pcrglobwb-azure  42G Sep 24 03:05 gswp3-w5e5_obsclim_hurs_global_daily_1901_2019_version_2021-09-XX.nc
#~ -rw-r--r-- 1 pcrglobwb-azure pcrglobwb-azure  42G Sep 24 03:03 gswp3-w5e5_obsclim_huss_global_daily_1901_2019_version_2021-09-XX.nc
#~ -rw-r--r-- 1 pcrglobwb-azure pcrglobwb-azure  42G Sep 24 03:04 gswp3-w5e5_obsclim_pr_global_daily_1901_2019_version_2021-09-XX.nc
#~ -rw-r--r-- 1 pcrglobwb-azure pcrglobwb-azure  42G Sep 24 03:03 gswp3-w5e5_obsclim_prsn_global_daily_1901_2019_version_2021-09-XX.nc
#~ -rw-r--r-- 1 pcrglobwb-azure pcrglobwb-azure  42G Sep 24 03:05 gswp3-w5e5_obsclim_ps_global_daily_1901_2019_version_2021-09-XX.nc
#~ -rw-r--r-- 1 pcrglobwb-azure pcrglobwb-azure  42G Sep 24 03:05 gswp3-w5e5_obsclim_rlds_global_daily_1901_2019_version_2021-09-XX.nc
#~ -rw-r--r-- 1 pcrglobwb-azure pcrglobwb-azure  42G Sep 24 03:03 gswp3-w5e5_obsclim_rsds_global_daily_1901_2019_version_2021-09-XX.nc
#~ -rw-r--r-- 1 pcrglobwb-azure pcrglobwb-azure  42G Sep 24 03:04 gswp3-w5e5_obsclim_sfcwind_global_daily_1901_2019_version_2021-09-XX.nc
#~ -rw-r--r-- 1 pcrglobwb-azure pcrglobwb-azure  42G Sep 24 03:04 gswp3-w5e5_obsclim_tas_global_daily_1901_2019_version_2021-09-XX.nc
#~ -rw-r--r-- 1 pcrglobwb-azure pcrglobwb-azure  42G Sep 24 03:05 gswp3-w5e5_obsclim_tasmax_global_daily_1901_2019_version_2021-09-XX.nc
#~ -rw-r--r-- 1 pcrglobwb-azure pcrglobwb-azure  42G Sep 24 03:05 gswp3-w5e5_obsclim_tasmin_global_daily_1901_2019_version_2021-09-XX.nc
#~ -rw-r--r-- 1 pcrglobwb-azure pcrglobwb-azure 1.4G Sep 24 02:41 monavg_gswp3-w5e5_obsclim_hurs_global_daily_1901_2019_version_2021-09-XX.nc
#~ -rw-r--r-- 1 pcrglobwb-azure pcrglobwb-azure 1.4G Sep 24 02:41 monavg_gswp3-w5e5_obsclim_huss_global_daily_1901_2019_version_2021-09-XX.nc
#~ -rw-r--r-- 1 pcrglobwb-azure pcrglobwb-azure 1.4G Sep 24 02:41 monavg_gswp3-w5e5_obsclim_pr_global_daily_1901_2019_version_2021-09-XX.nc
#~ -rw-r--r-- 1 pcrglobwb-azure pcrglobwb-azure 1.4G Sep 24 02:41 monavg_gswp3-w5e5_obsclim_prsn_global_daily_1901_2019_version_2021-09-XX.nc
#~ -rw-r--r-- 1 pcrglobwb-azure pcrglobwb-azure 1.4G Sep 24 02:41 monavg_gswp3-w5e5_obsclim_ps_global_daily_1901_2019_version_2021-09-XX.nc
#~ -rw-r--r-- 1 pcrglobwb-azure pcrglobwb-azure 1.4G Sep 24 02:42 monavg_gswp3-w5e5_obsclim_rlds_global_daily_1901_2019_version_2021-09-XX.nc
#~ -rw-r--r-- 1 pcrglobwb-azure pcrglobwb-azure 1.4G Sep 24 02:41 monavg_gswp3-w5e5_obsclim_rsds_global_daily_1901_2019_version_2021-09-XX.nc
#~ -rw-r--r-- 1 pcrglobwb-azure pcrglobwb-azure 1.4G Sep 24 02:42 monavg_gswp3-w5e5_obsclim_sfcwind_global_daily_1901_2019_version_2021-09-XX.nc
#~ -rw-r--r-- 1 pcrglobwb-azure pcrglobwb-azure 1.4G Sep 24 02:41 monavg_gswp3-w5e5_obsclim_tas_global_daily_1901_2019_version_2021-09-XX.nc
#~ -rw-r--r-- 1 pcrglobwb-azure pcrglobwb-azure 1.4G Sep 24 02:41 monavg_gswp3-w5e5_obsclim_tasmax_global_daily_1901_2019_version_2021-09-XX.nc
#~ -rw-r--r-- 1 pcrglobwb-azure pcrglobwb-azure 1.4G Sep 24 02:41 monavg_gswp3-w5e5_obsclim_tasmin_global_daily_1901_2019_version_2021-09-XX.nc


# Set the forcing temperature and precipitation files
precipitationNC    = /datadrive/pcrglobwb/isimip3a_forcing/copied_on_2021-09-XX/GSWP3-W5E5/merged/gswp3-w5e5_obsclim_pr_global_daily_1901_2019_version_2021-09-XX.nc
temperatureNC      = /datadrive/pcrglobwb/isimip3a_forcing/copied_on_2021-09-XX/GSWP3-W5E5/merged/gswp3-w5e5_obsclim_tas_global_daily_1901_2019_version_2021-09-XX.nc


# conversion constants and factors to correct forcing values (optional) so that the units are in m.day-1 and degree Celcius                                                                                                           
precipitationConstant    = 0.0
precipitationFactor      = 86.4
temperatureConstant      = -273.15
temperatureFactor        = 1.0


# Method to calculate referencePotETP (reference potential evaporation+transpiration)
referenceETPotMethod = Penman-Monteith
refETPotFileNC       = None


#~ # - test with Hamon
#~ referenceETPotMethod = Hamon
#~ refETPotFileNC       = None

#~ # - using the input file
#~ referenceETPotMethod    = Input
#~ refETPotFileNC          = /scratch/depfg/sutan101/pcrglobwb_aqueduct_2021/version_2021-06-23_w5e5v2_updated_gmd_parameters/global/merged_ref_pot_et/merged_1979-2019_with_climatology_on_1978/referencePotET_dailyTot_output_1979-2019_with_climatology_on_1978.nc


# meteo variables for calculating reference potential evaporation based on Penman-Monteith (optional)
#
# - 10 m wind speed, unit: m.s-1
wind_speed_10m              = /datadrive/pcrglobwb/isimip3a_forcing/copied_on_2021-09-XX/GSWP3-W5E5/merged/gswp3-w5e5_obsclim_sfcwind_global_daily_1901_2019_version_2021-09-XX.nc
#~ # - if wind_speed_10m is None, it will be estimated from u and v components
#~ wind_speed_10m_u_comp    = None
#~ wind_speed_10m_v_comp    = None
#
# - atmospheric pressure, unit: Pascal
atmospheric_pressure        = /datadrive/pcrglobwb/isimip3a_forcing/copied_on_2021-09-XX/GSWP3-W5E5/merged/gswp3-w5e5_obsclim_ps_global_daily_1901_2019_version_2021-09-XX.nc
#
# - shortwave (solar) radiation, unit: J.m-2.day-1 (default) or W.m-2
shortwave_radiation_input_in_w_per_m2 = True 
shortwave_radiation  = /datadrive/pcrglobwb/isimip3a_forcing/copied_on_2021-09-XX/GSWP3-W5E5/merged/gswp3-w5e5_obsclim_rsds_global_daily_1901_2019_version_2021-09-XX.nc
#
# - relative humidity, unit: 1 
relative_humidity    = /datadrive/pcrglobwb/isimip3a_forcing/copied_on_2021-09-XX/GSWP3-W5E5/merged/gswp3-w5e5_obsclim_hurs_global_daily_1901_2019_version_2021-09-XX.nc
#
# - conversion constant for the relative_humidity so that the values ranging from 0 to 1
consta_for_relative_humidity = 0.0                                                                                                      
factor_for_relative_humidity = 0.01 

# initial conditions:
avgAnnualDiurnalDeltaTempIni = /datadrive/pcrglobwb/pcrglobwb_input/version_2021-09-16/initial_conditions/avgAnnualDiurnalDeltaTemp_2019-12-31.map
avgAnnualPrecipitationIni    = /datadrive/pcrglobwb/pcrglobwb_input/version_2021-09-16/initial_conditions/avgAnnualPrecipitation_2019-12-31.map
avgAnnualTemperatureIni      = /datadrive/pcrglobwb/pcrglobwb_input/version_2021-09-16/initial_conditions/avgAnnualTemperature_2019-12-31.map


[meteoDownscalingOptions]
# This section is for a 5 arcmin run, for downscaling meteorological forcing at 30 arcmin to 5 arcmin.  
                                                                                                                                        
downscalePrecipitation  = False                                                                                                                                   
downscaleTemperature    = True                                                                                                                                   
downscaleReferenceETPot = False                                                                                                                                   
   
# downscaling (based on the digital elevation model):                                                                                                            
# The downscaling will be performed by providing the "cellIds" (meteoDownscaleIds) of lower resolution cells.                                                    
meteoDownscaleIds = general/uniqueIds_30min.nc                                                                      
highResolutionDEM = general/dem_average_topography_parameters_5min_april_2021_global_covered_with_zero.nc                                                                           
   
# lapse rates:                                                                                                                                                   
temperLapseRateNC = general/temperature_slope.nc                                                                     
precipLapseRateNC = general/precipitation_slope.nc                                                                   
                                                                                                                                                                 
# downscaling criteria (TODO: remove these):                                                                                                                     
temperatCorrelNC  = general/temperature_correl.nc                                                                     
precipitCorrelNC  = general/precipitation_correl.nc                                                                   
                                                                                                                                                                 
# windows length (unit: arc-degree) for smoothing/averaging forcing data (not recommended):                                                                      
smoothingWindowsLength = 0


[landSurfaceOptions]

debugWaterBalance = True

numberOfUpperSoilLayers = 2

# soil and parameters
# - they are used for all land cover types, unless they are are defined in certain land cover type options 
#   (e.g. different/various soil types for agriculture areas)  
topographyNC = general/topography_parameters_5min_april_2021_global_covered_with_zero.nc

# - using soilGrids
soilPropertiesNC        = None
# - if soilPropertiesNC = None, the following soil parameters will be used
firstStorDepth          = general/layerDepth_average_1_global_05arcmin.nc
secondStorDepth         = general/layerDepth_average_2_global_05arcmin.nc
soilWaterStorageCap1    = general/WHC_average_1_global_05arcmin.nc
soilWaterStorageCap2    = general/WHC_average_2_global_05arcmin.nc
airEntryValue1          = general/psiAir_average_1_global_05arcmin.nc
airEntryValue2          = general/psiAir_average_2_global_05arcmin.nc
poreSizeBeta1           = general/BCH_average_1_global_05arcmin.nc
poreSizeBeta2           = general/BCH_average_2_global_05arcmin.nc
resVolWC1               = general/vmcRes_average_1_global_05arcmin.nc
resVolWC2               = general/vmcRes_average_2_global_05arcmin.nc
satVolWC1               = general/vmcSat_average_1_global_05arcmin.nc
satVolWC2               = general/vmcSat_average_2_global_05arcmin.nc
KSat1                   = general/kSat_average_1_global_05arcmin.nc
KSat2                   = general/kSat_average_2_global_05arcmin.nc
					    
percolationImp          = general/global_05min_impeded_drainage_permafrost_dsmw_correct_lats.nc


# netcdf time series for historical expansion of irrigation areas (unit: hectares). 
# Note: The resolution of this map must be consisten with the resolution of cellArea. 
# - historical
historicalIrrigationArea    = historical_and_ssp_files/irrigated_areas_historical_1960-2019.nc
#~ # - ssp3
#~ historicalIrrigationArea = historical_and_ssp_files/irrigated_areas_ssp3_2000-2050.nc

#~ sutan101@gpu038.cluster:/scratch/depfg/sutan101/data/pcrglobwb_input_arise/develop/global_05min/waterUse/irrigated_areas/version_2021-09-13$ ls -lah *
#~ -rw-r--r-- 1 sutan101 depfg 2.1G Sep 13 21:01 irrigated_areas_historical_1960-2019.nc
#~ -rw-r--r-- 1 sutan101 depfg 1.8G Sep 13 21:01 irrigated_areas_ssp1_2000-2050.nc
#~ -rw-r--r-- 1 sutan101 depfg 1.8G Sep 13 21:01 irrigated_areas_ssp2_2000-2050.nc
#~ -rw-r--r-- 1 sutan101 depfg 1.8G Sep 13 21:01 irrigated_areas_ssp3_2000-2050.nc
#~ -rw-r--r-- 1 sutan101 depfg 1.8G Sep 13 21:01 irrigated_areas_ssp5_2000-2050.nc
#~ -rw-r--r-- 1 sutan101 depfg  107 Sep 13 21:47 source.txt


# domestic and industrial water demand files
# - historical
domesticWaterDemandFile      = historical_and_ssp_files/domestic_water_demand_historical_1960-2019.nc
industryWaterDemandFile      = historical_and_ssp_files/industry_water_demand_historical_1960-2019.nc
#~ # - ssp3                  
#~ domesticWaterDemandFile   = historical_and_ssp_files/domestic_water_demand_ssp3_2000-2100.nc
#~ industryWaterDemandFile   = historical_and_ssp_files/industry_water_demand_ssp3_2000-2100.nc


#~ sutan101@gpu038.cluster:/scratch/depfg/sutan101/data/pcrglobwb_input_arise/develop/global_05min/waterUse/waterDemand/version_2021-09-13$ ls -lah */*
#~ -rw-r--r-- 1 sutan101 depfg  51G Sep 13 21:18 domestic_water_demands/domestic_water_demand_historical_1960-2019.nc
#~ -rw-r--r-- 1 sutan101 depfg  85G Sep 13 21:16 domestic_water_demands/domestic_water_demand_ssp1_2000-2100.nc
#~ -rw-r--r-- 1 sutan101 depfg  85G Sep 13 21:22 domestic_water_demands/domestic_water_demand_ssp2_2000-2100.nc
#~ -rw-r--r-- 1 sutan101 depfg  85G Sep 13 21:15 domestic_water_demands/domestic_water_demand_ssp3_2000-2100.nc
#~ -rw-r--r-- 1 sutan101 depfg  85G Sep 13 21:15 domestic_water_demands/domestic_water_demand_ssp5_2000-2100.nc
#~ -rw-r--r-- 1 sutan101 depfg  51G Sep 13 21:25 industry_water_demands/industry_water_demand_historical_1960-2019.nc
#~ -rw-r--r-- 1 sutan101 depfg  85G Sep 13 21:24 industry_water_demands/industry_water_demand_ssp1_2000-2100.nc
#~ -rw-r--r-- 1 sutan101 depfg  85G Sep 13 21:28 industry_water_demands/industry_water_demand_ssp2_2000-2100.nc
#~ -rw-r--r-- 1 sutan101 depfg  85G Sep 13 21:22 industry_water_demands/industry_water_demand_ssp3_2000-2100.nc
#~ -rw-r--r-- 1 sutan101 depfg  85G Sep 13 21:24 industry_water_demands/industry_water_demand_ssp5_2000-2100.nc



# livestock water demand data (unit must be in m.day-1)
livestockWaterDemandFile = general/livestock_water_demand_05min.nc


includeDomesticWaterDemand  = True
includeIndustryWaterDemand  = True
includeLivestockWaterDemand = True

includeIrrigation = True


# a pcraster map/value defining irrigation efficiency (dimensionless) - optional
irrigationEfficiency     = general/efficiency.nc


# desalination water supply (maximum/potential/capacity)
desalinationWater = general/desalination_water_version_april_2015.nc


# zone IDs (scale) at which allocations of groundwater and surface water (as well as desalinated water) are performed  
allocationSegmentsForGroundSurfaceWater    = general/abstraction_zones_60min_05min.nc


# pcraster maps defining the partitioning of groundwater - surface water source 
#
# - predefined surface water - groundwater partitioning for irrigation demand (e.g. based on Siebert, Global Map of Irrigation Areas version 5)
irrigationSurfaceWaterAbstractionFractionData           = general/AEI_SWFRAC.nc
# -- quality map
irrigationSurfaceWaterAbstractionFractionDataQuality    = general/AEI_QUAL.nc
#
# - threshold values defining the preference for surface water source for irrigation purpose
# -- treshold to maximize surface water irrigation use (cells with irrSurfaceWaterAbstractionFraction above this will prioritize irrigation surface water use)
treshold_to_maximize_irrigation_surface_water           = 0.50
# -- treshold to minimize fossil water withdrawal for irrigation (cells with irrSurfaceWaterAbstractionFraction below this have no fossil withdrawal for irrigation)
treshold_to_minimize_fossil_groundwater_irrigation      = 0.70
#
# - predefined surface water - groundwater partitioning for non irrigation demand (e.g. based on McDonald, 2014)
maximumNonIrrigationSurfaceWaterAbstractionFractionData = general/max_city_sw_fraction.nc


[forestOptions]

name = forest
debugWaterBalance = True

# snow module properties
snowModuleType      =  Simple
freezingT           =  0.0
degreeDayFactor     =  0.0055
snowWaterHoldingCap =  0.1
refreezingCoeff     =  0.05


landCoverMapsNC   = None
# If NC file is not provided, we have to provide the following pcraster maps:

fracVegCover      = general/vegf_tall.map
minSoilDepthFrac  = general/minf_tall.map
maxSoilDepthFrac  = general/maxf_tall.map
rootFraction1     = general/rfrac1_tall.map
rootFraction2     = general/rfrac2_tall.map
maxRootDepth      = 1.0
# Note: The maxRootDepth is not used for non irrigated land cover type. 	
#
# Parameters for the Arno's scheme:
arnoBeta = None
# If arnoBeta is defined, the soil water capacity distribution is based on this.
# If arnoBeta is NOT defined, maxSoilDepthFrac must be defined such that arnoBeta will be calculated based on maxSoilDepthFrac and minSoilDepthFrac.


cropCoefficientNC = general/tall_crop_coefficient.nc
coverFractionNC   = general/tall_cover_fraction.nc
interceptCapNC    = general/tall_intercept_capacity.nc


# other paramater values
minTopWaterLayer  = 0.0
minCropKC         = 0.2
minInterceptCap   = 0.0002


noParameterExtrapolation = True


# initial conditions:
interceptStorIni = /datadrive/pcrglobwb/pcrglobwb_input/version_2021-09-16/initial_conditions/interceptStor_forest_2019-12-31.map
snowCoverSWEIni  = /datadrive/pcrglobwb/pcrglobwb_input/version_2021-09-16/initial_conditions/snowCoverSWE_forest_2019-12-31.map
snowFreeWaterIni = /datadrive/pcrglobwb/pcrglobwb_input/version_2021-09-16/initial_conditions/snowFreeWater_forest_2019-12-31.map
topWaterLayerIni = /datadrive/pcrglobwb/pcrglobwb_input/version_2021-09-16/initial_conditions/topWaterLayer_forest_2019-12-31.map
storUppIni       = /datadrive/pcrglobwb/pcrglobwb_input/version_2021-09-16/initial_conditions/storUpp_forest_2019-12-31.map
storLowIni       = /datadrive/pcrglobwb/pcrglobwb_input/version_2021-09-16/initial_conditions/storLow_forest_2019-12-31.map
interflowIni     = /datadrive/pcrglobwb/pcrglobwb_input/version_2021-09-16/initial_conditions/interflow_forest_2019-12-31.map




[grasslandOptions]

name = grassland
debugWaterBalance = True

# snow module properties
snowModuleType      =  Simple
freezingT           =  0.0
degreeDayFactor     =  0.0055
snowWaterHoldingCap =  0.1
refreezingCoeff     =  0.05


landCoverMapsNC   = None
# If NC file is not provided, we have to provide the following pcraster maps:

fracVegCover      = general/vegf_short.map

minSoilDepthFrac  = general/minf_short.map
maxSoilDepthFrac  = general/maxf_short.map
rootFraction1     = general/rfrac1_short.map
rootFraction2     = general/rfrac2_short.map
maxRootDepth      = 0.5
# Note: The maxRootDepth is not used for non irrigated land cover type. 	
#
# Parameters for the Arno's scheme:
arnoBeta = None
# If arnoBeta is defined, the soil water capacity distribution is based on this.
# If arnoBeta is NOT defined, maxSoilDepthFrac must be defined such that arnoBeta will be calculated based on maxSoilDepthFrac and minSoilDepthFrac.


cropCoefficientNC = general/short_crop_coefficient.nc
coverFractionNC   = general/short_cover_fraction.nc
interceptCapNC    = general/short_intercept_capacity.nc


# other paramater values
minTopWaterLayer = 0.0
minCropKC        = 0.2
minInterceptCap  = 0.0002


noParameterExtrapolation = True


# initial conditions:
interceptStorIni = /datadrive/pcrglobwb/pcrglobwb_input/version_2021-09-16/initial_conditions/interceptStor_grassland_2019-12-31.map
snowCoverSWEIni  = /datadrive/pcrglobwb/pcrglobwb_input/version_2021-09-16/initial_conditions/snowCoverSWE_grassland_2019-12-31.map
snowFreeWaterIni = /datadrive/pcrglobwb/pcrglobwb_input/version_2021-09-16/initial_conditions/snowFreeWater_grassland_2019-12-31.map
topWaterLayerIni = /datadrive/pcrglobwb/pcrglobwb_input/version_2021-09-16/initial_conditions/topWaterLayer_grassland_2019-12-31.map
storUppIni       = /datadrive/pcrglobwb/pcrglobwb_input/version_2021-09-16/initial_conditions/storUpp_grassland_2019-12-31.map
storLowIni       = /datadrive/pcrglobwb/pcrglobwb_input/version_2021-09-16/initial_conditions/storLow_grassland_2019-12-31.map
interflowIni     = /datadrive/pcrglobwb/pcrglobwb_input/version_2021-09-16/initial_conditions/interflow_grassland_2019-12-31.map




[irrPaddyOptions]

name = irrPaddy
debugWaterBalance = True

# snow module properties
snowModuleType      =  Simple
freezingT           =  0.0
degreeDayFactor     =  0.0055
snowWaterHoldingCap =  0.1
refreezingCoeff     =  0.05


landCoverMapsNC  = None

fracVegCover     = general/fractionPaddy_extrapolated.map
minSoilDepthFrac = 0.99
maxSoilDepthFrac = 1.01
rootFraction1    = 1.00
rootFraction2    = 0.00
maxRootDepth     = 0.5
arnoBeta = None


# other paramater values
minTopWaterLayer = 0.05
minCropKC        = 0.2
cropDeplFactor   = 0.2
minInterceptCap  = 0.0002


cropCoefficientNC = general/paddy_cropfactor_filled.nc         
coverFractionNC   = general/paddy_groundcover_filled.nc
interceptCapNC    = general/paddy_interceptionstorage_filled.nc        


noParameterExtrapolation = True


# initial conditions:
interceptStorIni = /datadrive/pcrglobwb/pcrglobwb_input/version_2021-09-16/initial_conditions/interceptStor_irrPaddy_2019-12-31.map
snowCoverSWEIni  = /datadrive/pcrglobwb/pcrglobwb_input/version_2021-09-16/initial_conditions/snowCoverSWE_irrPaddy_2019-12-31.map
snowFreeWaterIni = /datadrive/pcrglobwb/pcrglobwb_input/version_2021-09-16/initial_conditions/snowFreeWater_irrPaddy_2019-12-31.map
topWaterLayerIni = /datadrive/pcrglobwb/pcrglobwb_input/version_2021-09-16/initial_conditions/topWaterLayer_irrPaddy_2019-12-31.map
storUppIni       = /datadrive/pcrglobwb/pcrglobwb_input/version_2021-09-16/initial_conditions/storUpp_irrPaddy_2019-12-31.map
storLowIni       = /datadrive/pcrglobwb/pcrglobwb_input/version_2021-09-16/initial_conditions/storLow_irrPaddy_2019-12-31.map
interflowIni     = /datadrive/pcrglobwb/pcrglobwb_input/version_2021-09-16/initial_conditions/interflow_irrPaddy_2019-12-31.map




[irrNonPaddyOptions]

name = irrNonPaddy
debugWaterBalance = True

# snow module properties
snowModuleType      =  Simple
freezingT           =  0.0
degreeDayFactor     =  0.0055
snowWaterHoldingCap =  0.1
refreezingCoeff     =  0.05


landCoverMapsNC  = None

fracVegCover     = general/fractionNonPaddy_extrapolated.map

minSoilDepthFrac = general/nonpaddy_minSoilDepthFrac_filled.map
maxSoilDepthFrac = general/nonpaddy_maxSoilDepthFrac_filled.map
rootFraction1    = general/nonpaddy_rootfraction_z1_filled.map
rootFraction2    = general/nonpaddy_rootfraction_z2_filled.map
maxRootDepth     = general/nonpaddy_maxSoilDepth_filled.map
arnoBeta = None


# other paramater values
minTopWaterLayer = 0.0
minCropKC        = 0.2
cropDeplFactor   = 0.5
minInterceptCap  = 0.0002


cropCoefficientNC = general/nonpaddy_cropfactor_filled.nc         
coverFractionNC   = general/nonpaddy_groundcover_filled.nc
interceptCapNC    = general/nonpaddy_interceptionstorage_filled.nc        


noParameterExtrapolation = True


# initial conditions:
interceptStorIni = /datadrive/pcrglobwb/pcrglobwb_input/version_2021-09-16/initial_conditions/interceptStor_irrNonPaddy_2019-12-31.map
snowCoverSWEIni  = /datadrive/pcrglobwb/pcrglobwb_input/version_2021-09-16/initial_conditions/snowCoverSWE_irrNonPaddy_2019-12-31.map
snowFreeWaterIni = /datadrive/pcrglobwb/pcrglobwb_input/version_2021-09-16/initial_conditions/snowFreeWater_irrNonPaddy_2019-12-31.map
topWaterLayerIni = /datadrive/pcrglobwb/pcrglobwb_input/version_2021-09-16/initial_conditions/topWaterLayer_irrNonPaddy_2019-12-31.map
storUppIni       = /datadrive/pcrglobwb/pcrglobwb_input/version_2021-09-16/initial_conditions/storUpp_irrNonPaddy_2019-12-31.map
storLowIni       = /datadrive/pcrglobwb/pcrglobwb_input/version_2021-09-16/initial_conditions/storLow_irrNonPaddy_2019-12-31.map
interflowIni     = /datadrive/pcrglobwb/pcrglobwb_input/version_2021-09-16/initial_conditions/interflow_irrNonPaddy_2019-12-31.map




[groundwaterOptions]

debugWaterBalance = True

groundwaterPropertiesNC = None
specificYield  = general/specific_yield_aquifer_05min.map
kSatAquifer    = general/k_conductivity_aquifer_05min.map
recessionCoeff = general/recession_coefficient_05min.map


# minimum value for groundwater recession coefficient (day-1) 
# - about 11 years
minRecessionCoeff = 0.00025


# some options for constraining groundwater abstraction
limitFossilGroundWaterAbstraction      = True
estimateOfRenewableGroundwaterCapacity = 0.0
estimateOfTotalGroundwaterThickness    = general/thickness_05min_remapbil_to_30sec_filled_with_pcr_correct_lat_upscaled_back_to_05min_with_remapcon.nc
# minimum and maximum total groundwater thickness 
minimumTotalGroundwaterThickness       = 100.
maximumTotalGroundwaterThickness       = None

doNotExtrapolateThickness = True
noParameterExtrapolation  = True

# annual pumping capacity for each region (unit: billion cubic meter per year), should be given in a netcdf file
pumpingCapacityNC = general/gw_pumping_capacity_1960-2100.nc


# zonal IDs (scale) at which zonal allocation of groundwater is performed  
allocationSegmentsForGroundwater = general/abstraction_zones_30min_05min.nc


# initial conditions:
storGroundwaterIni                           = /datadrive/pcrglobwb/pcrglobwb_input/version_2021-09-16/initial_conditions/storGroundwater_2019-12-31.map
#~ storGroundwaterIni                        = ESTIMATE_FROM_GROUNDWATER_RECHARGE_RATE

storGroundwaterFossilIni                     = /datadrive/pcrglobwb/pcrglobwb_input/version_2021-09-16/initial_conditions/storGroundwaterFossil_2019-12-31.map
#~ storGroundwaterFossilIni                  = Maximum

avgNonFossilGroundwaterAllocationLongIni     = /datadrive/pcrglobwb/pcrglobwb_input/version_2021-09-16/initial_conditions/avgNonFossilGroundwaterAllocationLong_2019-12-31.map
avgNonFossilGroundwaterAllocationShortIni    = /datadrive/pcrglobwb/pcrglobwb_input/version_2021-09-16/initial_conditions/avgNonFossilGroundwaterAllocationShort_2019-12-31.map
avgTotalGroundwaterAbstractionIni            = /datadrive/pcrglobwb/pcrglobwb_input/version_2021-09-16/initial_conditions/avgTotalGroundwaterAbstraction_2019-12-31.map
avgTotalGroundwaterAllocationLongIni         = /datadrive/pcrglobwb/pcrglobwb_input/version_2021-09-16/initial_conditions/avgTotalGroundwaterAllocationLong_2019-12-31.map
avgTotalGroundwaterAllocationShortIni        = /datadrive/pcrglobwb/pcrglobwb_input/version_2021-09-16/initial_conditions/avgTotalGroundwaterAllocationShort_2019-12-31.map
relativeGroundwaterHeadIni                   = /datadrive/pcrglobwb/pcrglobwb_input/version_2021-09-16/initial_conditions/relativeGroundwaterHead_2019-12-31.map
baseflowIni                                  = /datadrive/pcrglobwb/pcrglobwb_input/version_2021-09-16/initial_conditions/baseflow_2019-12-31.map

# we need avgStorGroundwater for a non linear groundwater reservoir
avgStorGroundwaterIni                        = /datadrive/pcrglobwb/pcrglobwb_input/version_2021-09-16/initial_conditions/avgStorGroundwater_2019-12-31.map


#~ # option to start with the maximum value for storGroundwaterFossilIni (this will set/lead to storGroundwaterFossilIni = Maximum ; overwrite/overrule existing storGroundwaterFossilIni)
#~ useMaximumStorGroundwaterFossilIni        = True
#~ useMaximumStorGroundwaterFossilIni        = False
#~ useMaximumStorGroundwaterFossilIni        = USE_MAXIMUM_STOR_GROUNDWATER_FOSSIL_INI


# option to start with the value of storGroundwaterIni estimated from groundwater recharge (this will set/lead to storGroundwaterIni = ESTIMATE_FROM_GROUNDWATER_RECHARGE_RATE)
#~ estimateStorGroundwaterIniFromRecharge    = True
#~ estimateStorGroundwaterIniFromRecharge    = False
#~ estimateStorGroundwaterIniFromRecharge    = ESTIMATE_STOR_GROUNDWATER_INI_FROM_RECHARGE
#~ dailyGroundwaterRechargeIni               = DAILY_GROUNDWATER_RECHARGE_INI


[routingOptions]

debugWaterBalance = True

# drainage direction map
lddMap           = general/lddsound_05min_version_20210330.map

# cell area (unit: m2)
cellAreaMap      = general/cdo_gridarea_clone_global_05min_correct_lats.nc

# routing method:
routingMethod = accuTravelTime

# manning coefficient
manningsN = 0.04

# Option for flood plain simulation
dynamicFloodPlain = True

# manning coefficient for floodplain
floodplainManningsN = 0.07


# channel gradient
gradient             = general/gradient_channel_parameters_5min_april_2021_global_covered_with_zero.nc
