[globalOptions]

# Set the pcrglobwb output directory in an absolute path.
outputDir    = /projects/0/dfguu2/scratch/edwinhs/pcrglobwb2_output_05min_mekong_2000-2010/pcrglobwb_only_non-natural_accutraveltime/

# Set the input directory map in an absolute path. 
# - The input forcing and parameter directories and files will be relative to this.
inputDir     = /projects/0/dfguu/data/hydroworld/pcrglobwb2_input_release/develop/pcrglobwb2_input/

#~ # the following is needed for a parallel run
#~ cloneAreas = Global
#
#~ # PART ONE
#~ cloneAreas = part_one
#~ # PART TWO
#~ cloneAreas = part_two

# Map of clone (must be provided in PCRaster maps)
# - Spatial resolution and coverage are based on this map:
#~ cloneMap = global_05min/cloneMaps/global_parallelization/clone_%3s.map
#~ cloneMap = global_05min/cloneMaps/global_parallelization/clone_M40.map
#~ cloneMap = global_05min/routing/ldd_and_cell_area/lddsound_05min.map
cloneMap    = /projects/0/dfguu/users/edwinhs/data/mekong_etc_clone/version_2018-10-22/final/clone_mekong.map

# The area/landmask of interest:
# If None, area/landmask is limited for cells with ldd value. 
#~ landmask = global_05min/cloneMaps/global_parallelization/mask_%3s.map
#~ landmask = None
landmask    = /projects/0/dfguu/users/edwinhs/data/mekong_etc_clone/version_2018-10-22/final/mask_mekong.map

# netcdf attributes for output files:
institution  = Department of Physical Geography, Utrecht University
title        = PCR-GLOBWB 2 output
description  = by Edwin H. Sutanudjaja (contact: e.h.sutanudjaja@uu.nl) 

startTime = 2000-01-01
endTime   = 2010-12-31
# Format: YYYY-MM-DD ; The current model runs on the daily time step.

# spinning up options:
maxSpinUpsInYears = 2
minConvForSoilSto = 0.0
minConvForGwatSto = 0.0
minConvForChanSto = 0.0
minConvForTotlSto = 0.0

# option/directory for saving the spin-up directory 
spinUpOutputDir = True

# an optional option to include the merging process (needed for parallel runs with/without modflow) 
# - for parallel runs with spin-ups, we should set this to False
#~ with_merging = False
#~ with_merging = True

[globalMergingAndModflowOptions]

# the global clone map
cloneMap = global_05min/routing/ldd_and_cell_area/lddsound_05min.map

# The area/landmask of interest:
landmask = None
# If None, area/landmask is limited for cells with ldd value. 

# option to indicate if an online coupling between PCR-GLOBWB and MODFLOW models used
online_coupling_between_pcrglobwb_and_modflow = False



[prefactorOptions]

linear_multiplier_for_refPotET         = 1.0
linear_multiplier_for_degreeDayFactor  = 1.0
linear_multiplier_for_minSoilDepthFrac = 1.0
log_10_multiplier_for_kSat             = 0.0
linear_multiplier_for_storCap          = 1.0
log_10_multiplier_for_recessionCoeff   = 0.0



[meteoOptions]

# Set the forcing temperature and precipitation files (relative to inputDir)
#~ precipitationNC = global_30min/meteo/forcing/daily_precipitation_cru_era-interim_2000_to_2010.nc4
#~ temperatureNC   = global_30min/meteo/forcing/daily_temperature_cru_era-interim_2000_to_2010.nc4
#~ 
precipitationNC = /projects/0/dfguu/data/hydroworld/forcing/CRU-TS3.2/merged_cru_1958-2015/daily_precipitation_cruts321_era-40_era-interim_1958-2010_cruts324_era-interim_2011_to_2015.nc
temperatureNC   = /projects/0/dfguu/data/hydroworld/forcing/CRU-TS3.2/merged_cru_1958-2015/daily_temperature_cruts321_era-40_era-interim_1958-2010_cruts324_era-interim_2011_to_2015.nc

# Method to calculate referencePotETP (reference potential evaporation+transpiration)
# options are "Hamon" and "Input" ; If "Input", the netcdf input file must be given:
referenceETPotMethod = Input
#~ refETPotFileNC = global_30min/meteo/forcing/daily_referencePotET_cru_era-interim_2000_to_2010.nc4
#~ 
refETPotFileNC = /projects/0/dfguu/data/hydroworld/forcing/CRU-TS3.2/merged_cru_1958-2015/daily_referencePotET_cruts321_era-40_era-interim_1958-2010_cruts324_era-interim_2011_to_2015.nc



[meteoDownscalingOptions]
# This section is for a 5 arcmin run, for downscaling meteorological forcing at 30 arcmin to 5 arcmin.  
                                                                                                                                        
downscalePrecipitation  = False                                                                                                                                   
downscaleTemperature    = True                                                                                                                                   
downscaleReferenceETPot = False                                                                                                                                   
   
# downscaling (based on the digital elevation model):                                                                                                            
# The downscaling will be performed by providing the "cellIds" (meteoDownscaleIds) of lower resolution cells.                                                    
meteoDownscaleIds = global_05min/meteo/downscaling_from_30min/uniqueIds_30min.map                                                                      
highResolutionDEM = global_05min/meteo/downscaling_from_30min/gtopo05min.map                                                                           
   
# lapse rates:                                                                                                                                                   
temperLapseRateNC = global_05min/meteo/downscaling_from_30min/temperature_slope.nc                                                                     
precipLapseRateNC = global_05min/meteo/downscaling_from_30min/precipitation_slope.nc                                                                   
                                                                                                                                                                 
# downscaling criteria (TODO: remove these):                                                                                                                     
temperatCorrelNC  = global_05min/meteo/downscaling_from_30min/temperature_correl.nc                                                                     
precipitCorrelNC  = global_05min/meteo/downscaling_from_30min/precipitation_correl.nc                                                                   
                                                                                                                                                                 
# windows length (unit: arc-degree) for smoothing/averaging forcing data (not recommended):                                                                      
smoothingWindowsLength = 0




[landSurfaceOptions]
debugWaterBalance = True

numberOfUpperSoilLayers = 2

# soil and parameters
# - they are used for all land cover types, unless they are are defined in certain land cover type options 
#   (e.g. different/various soil types for agriculture areas)  
topographyNC     = global_05min/landSurface/topography/topography_parameters_5_arcmin_october_2015.nc
soilPropertiesNC = global_05min/landSurface/soil/soilProperties5ArcMin.nc


includeIrrigation = True

# netcdf time series for historical expansion of irrigation areas (unit: hectares). 
# Note: The resolution of this map must be consisten with the resolution of cellArea. 
historicalIrrigationArea = global_05min/waterUse/irrigation/irrigated_areas/irrigationArea05ArcMin.nc


# a pcraster map/value defining irrigation efficiency (dimensionless) - optional
irrigationEfficiency = global_30min/waterUse/irrigation/irrigation_efficiency/efficiency.map


includeDomesticWaterDemand  = True
includeIndustryWaterDemand  = True
includeLivestockWaterDemand = True


# domestic, industrial and livestock water demand data (unit must be in m.day-1)
domesticWaterDemandFile  = global_05min/waterUse/waterDemand/domestic/domestic_water_demand_version_april_2015.nc
industryWaterDemandFile  = global_05min/waterUse/waterDemand/industry/industry_water_demand_version_april_2015.nc
livestockWaterDemandFile = global_05min/waterUse/waterDemand/livestock/livestock_water_demand_version_april_2015.nc


# desalination water supply (maximum/potential/capacity)
desalinationWater = global_05min/waterUse/desalination/desalination_water_version_april_2015.nc


# zone IDs (scale) at which allocations of groundwater and surface water (as well as desalinated water) are performed  
allocationSegmentsForGroundSurfaceWater = global_05min/waterUse/abstraction_zones/abstraction_zones_60min_05min.map

# pcraster maps defining the partitioning of groundwater - surface water source 
#
# - predefined surface water - groundwater partitioning for irrigation demand (e.g. based on Siebert, Global Map of Irrigation Areas version 5)
irrigationSurfaceWaterAbstractionFractionData           = global_05min/waterUse/source_partitioning/surface_water_fraction_for_irrigation/AEI_SWFRAC.map
# -- quality map
irrigationSurfaceWaterAbstractionFractionDataQuality    = global_05min/waterUse/source_partitioning/surface_water_fraction_for_irrigation/AEI_QUAL.map
#
# - threshold values defining the preference for surface water source for irrigation purpose
# -- treshold to maximize surface water irrigation use (cells with irrSurfaceWaterAbstractionFraction above this will prioritize irrigation surface water use)
treshold_to_maximize_irrigation_surface_water           = 0.50
# -- treshold to minimize fossil water withdrawal for irrigation (cells with irrSurfaceWaterAbstractionFraction below this have no fossil withdrawal for irrigation)
treshold_to_minimize_fossil_groundwater_irrigation      = 0.70
#
# - predefined surface water - groundwater partitioning for non irrigation demand (e.g. based on McDonald, 2014)
maximumNonIrrigationSurfaceWaterAbstractionFractionData = global_30min/waterUse/source_partitioning/surface_water_fraction_for_non_irrigation/max_city_sw_fraction.map


# output files that will be written in the disk in netcdf files:
outDailyTotNC = openWaterEvap
outMonthTotNC = None
outMonthAvgNC = None
outMonthEndNC = None
outAnnuaTotNC = None
outAnnuaAvgNC = None
outAnnuaEndNC = None


[forestOptions]

name = forest
debugWaterBalance = True

# snow module properties
snowModuleType      =  Simple
freezingT           =  0.0
degreeDayFactor     =  0.0025
snowWaterHoldingCap =  0.1
refreezingCoeff     =  0.05

# other paramater values
minTopWaterLayer  = 0.0
minCropKC         = 0.2

cropCoefficientNC = global_05min/landSurface/landCover/naturalTall/cropCoefficientForest.nc
interceptCapNC    = global_05min/landSurface/landCover/naturalTall/interceptCapInputForest.nc
coverFractionNC   = global_05min/landSurface/landCover/naturalTall/coverFractionInputForest.nc

landCoverMapsNC   = None
# If NC file is not provided, we have to provide the following pcraster maps:
fracVegCover      = global_05min/landSurface/landCover/naturalTall/vegf_tall.map
minSoilDepthFrac  = global_30min/landSurface/landCover/naturalTall/minf_tall_permafrost.map
maxSoilDepthFrac  = global_30min/landSurface/landCover/naturalTall/maxf_tall.map
rootFraction1     = global_05min/landSurface/landCover/naturalTall/rfrac1_tall.map
rootFraction2     = global_05min/landSurface/landCover/naturalTall/rfrac2_tall.map	
maxRootDepth      = 1.0
# Note: The maxRootDepth is not used for non irrigated land cover type. 	
#
# Parameters for the Arno's scheme:
arnoBeta = None
# If arnoBeta is defined, the soil water capacity distribution is based on this.
# If arnoBeta is NOT defined, maxSoilDepthFrac must be defined such that arnoBeta will be calculated based on maxSoilDepthFrac and minSoilDepthFrac.

# initial conditions:
interceptStorIni = global_05min/initialConditions//interceptStor_forest_1999-12-31.map
snowCoverSWEIni  = global_05min/initialConditions//snowCoverSWE_forest_1999-12-31.map
snowFreeWaterIni = global_05min/initialConditions//snowFreeWater_forest_1999-12-31.map
topWaterLayerIni = global_05min/initialConditions//topWaterLayer_forest_1999-12-31.map
storUppIni       = global_05min/initialConditions//storUpp_forest_1999-12-31.map
storLowIni       = global_05min/initialConditions//storLow_forest_1999-12-31.map
interflowIni     = global_05min/initialConditions//interflow_forest_1999-12-31.map


[grasslandOptions]

name = grassland
debugWaterBalance = True

# snow module properties
snowModuleType      =  Simple
freezingT           =  0.0
degreeDayFactor     =  0.0025
snowWaterHoldingCap =  0.1
refreezingCoeff     =  0.05

# other paramater values
minTopWaterLayer = 0.0
minCropKC        = 0.2

cropCoefficientNC = global_05min/landSurface/landCover/naturalShort/cropCoefficientGrassland.nc
interceptCapNC    = global_05min/landSurface/landCover/naturalShort/interceptCapInputGrassland.nc
coverFractionNC   = global_05min/landSurface/landCover/naturalShort/coverFractionInputGrassland.nc

landCoverMapsNC   = None
# If NC file is not provided, we have to provide the following values:
fracVegCover      = global_05min/landSurface/landCover/naturalShort/vegf_short.map
minSoilDepthFrac  = global_30min/landSurface/landCover/naturalShort/minf_short_permafrost.map
maxSoilDepthFrac  = global_30min/landSurface/landCover/naturalShort/maxf_short.map
rootFraction1     = global_05min/landSurface/landCover/naturalShort/rfrac1_short.map
rootFraction2     = global_05min/landSurface/landCover/naturalShort/rfrac2_short.map	
maxRootDepth      = 0.5
# Note: The maxRootDepth is not used for non irrigated land cover type. 	
#
# Parameters for the Arno's scheme:
arnoBeta = None
# If arnoBeta is defined, the soil water capacity distribution is based on this.
# If arnoBeta is NOT defined, maxSoilDepthFrac must be defined such that arnoBeta will be calculated based on maxSoilDepthFrac and minSoilDepthFrac.

# initial conditions:
interceptStorIni = global_05min/initialConditions//interceptStor_grassland_1999-12-31.map
snowCoverSWEIni  = global_05min/initialConditions//snowCoverSWE_grassland_1999-12-31.map
snowFreeWaterIni = global_05min/initialConditions//snowFreeWater_grassland_1999-12-31.map
topWaterLayerIni = global_05min/initialConditions//topWaterLayer_grassland_1999-12-31.map
storUppIni       = global_05min/initialConditions//storUpp_grassland_1999-12-31.map
storLowIni       = global_05min/initialConditions//storLow_grassland_1999-12-31.map
interflowIni     = global_05min/initialConditions//interflow_grassland_1999-12-31.map


[irrPaddyOptions]

name = irrPaddy
debugWaterBalance = True

# snow module properties
snowModuleType      =  Simple
freezingT           =  0.0
degreeDayFactor     =  0.0025
snowWaterHoldingCap =  0.1
refreezingCoeff     =  0.05
#
landCoverMapsNC  = None
# If NC file is not provided, we have to provide the following values:
fracVegCover     = global_05min/landSurface/landCover/irrPaddy/fractionPaddy.map
minSoilDepthFrac = global_30min/landSurface/landCover/irrPaddy/minf_paddy_permafrost.map
maxSoilDepthFrac = global_30min/landSurface/landCover/irrPaddy/maxf_paddy.map
rootFraction1    = global_30min/landSurface/landCover/irrPaddy/rfrac1_paddy.map
rootFraction2    = global_30min/landSurface/landCover/irrPaddy/rfrac2_paddy.map
maxRootDepth     = 0.5
#
# Parameters for the Arno's scheme:
arnoBeta = None
# If arnoBeta is defined, the soil water capacity distribution is based on this.
# If arnoBeta is NOT defined, maxSoilDepthFrac must be defined such that arnoBeta will be calculated based on maxSoilDepthFrac and minSoilDepthFrac.
#
# other paramater values
minTopWaterLayer = 0.05
minCropKC        = 0.2
cropDeplFactor   = 0.2
minInterceptCap  = 0.0002

cropCoefficientNC = global_30min/landSurface/landCover/irrPaddy/Global_CropCoefficientKc-IrrPaddy_30min.nc

# initial conditions:
interceptStorIni = global_05min/initialConditions/interceptStor_irrPaddy_1999-12-31.map
snowCoverSWEIni  = global_05min/initialConditions/snowCoverSWE_irrPaddy_1999-12-31.map
snowFreeWaterIni = global_05min/initialConditions/snowFreeWater_irrPaddy_1999-12-31.map
topWaterLayerIni = global_05min/initialConditions/topWaterLayer_irrPaddy_1999-12-31.map
storUppIni       = global_05min/initialConditions/storUpp_irrPaddy_1999-12-31.map
storLowIni       = global_05min/initialConditions/storLow_irrPaddy_1999-12-31.map
interflowIni     = global_05min/initialConditions/interflow_irrPaddy_1999-12-31.map


[irrNonPaddyOptions]

name = irrNonPaddy
debugWaterBalance = True

# snow module properties
snowModuleType      =  Simple
freezingT           =  0.0
degreeDayFactor     =  0.0025
snowWaterHoldingCap =  0.1
refreezingCoeff     =  0.05
#
landCoverMapsNC  = None
# If NC file is not provided, we have to provide the following values:
fracVegCover     = global_05min/landSurface/landCover/irrNonPaddy/fractionNonPaddy.map
minSoilDepthFrac = global_30min/landSurface/landCover/irrNonPaddy/minf_nonpaddy_permafrost.map
maxSoilDepthFrac = global_30min/landSurface/landCover/irrNonPaddy/maxf_nonpaddy.map
rootFraction1    = global_30min/landSurface/landCover/irrNonPaddy/rfrac1_nonpaddy.map
rootFraction2    = global_30min/landSurface/landCover/irrNonPaddy/rfrac2_nonpaddy.map
maxRootDepth     = 1.0
#
# Parameters for the Arno's scheme:
arnoBeta = None
# If arnoBeta is defined, the soil water capacity distribution is based on this.
# If arnoBeta is NOT defined, maxSoilDepthFrac must be defined such that arnoBeta will be calculated based on maxSoilDepthFrac and minSoilDepthFrac.
#
# other paramater values
minTopWaterLayer = 0.0
minCropKC        = 0.2
cropDeplFactor   = 0.5
minInterceptCap  = 0.0002

cropCoefficientNC = global_30min/landSurface/landCover/irrNonPaddy/Global_CropCoefficientKc-IrrNonPaddy_30min.nc

# initial conditions:
interceptStorIni = global_05min/initialConditions/interceptStor_irrNonPaddy_1999-12-31.map
snowCoverSWEIni  = global_05min/initialConditions/snowCoverSWE_irrNonPaddy_1999-12-31.map
snowFreeWaterIni = global_05min/initialConditions/snowFreeWater_irrNonPaddy_1999-12-31.map
topWaterLayerIni = global_05min/initialConditions/topWaterLayer_irrNonPaddy_1999-12-31.map
storUppIni       = global_05min/initialConditions/storUpp_irrNonPaddy_1999-12-31.map
storLowIni       = global_05min/initialConditions/storLow_irrNonPaddy_1999-12-31.map
interflowIni     = global_05min/initialConditions/interflow_irrNonPaddy_1999-12-31.map



[groundwaterOptions]

debugWaterBalance = True

groundwaterPropertiesNC = global_05min/groundwater/properties/groundwaterProperties5ArcMin.nc
# The file will containspecificYield (m3.m-3), kSatAquifer, recessionCoeff (day-1)
#
# - minimum value for groundwater recession coefficient (day-1) 
minRecessionCoeff = 1.0e-4

# some options for constraining groundwater abstraction
limitFossilGroundWaterAbstraction      = True
estimateOfRenewableGroundwaterCapacity = 0.0
estimateOfTotalGroundwaterThickness    = global_05min/groundwater/aquifer_thickness_estimate/thickness_05min.map
# minimum and maximum total groundwater thickness 
minimumTotalGroundwaterThickness       = 100.
maximumTotalGroundwaterThickness       = None

# annual pumping capacity for each region (unit: billion cubic meter per year), should be given in a netcdf file
pumpingCapacityNC = global_30min/waterUse/groundwater_pumping_capacity/regional_abstraction_limit.nc

# initial conditions:
storGroundwaterIni                        = global_05min/initialConditions//storGroundwater_1999-12-31.map
storGroundwaterFossilIni                  = global_05min/initialConditions//storGroundwaterFossil_1999-12-31.map
#
# additional initial conditions for pumping behaviors
avgNonFossilGroundwaterAllocationLongIni  = global_05min/initialConditions//avgNonFossilGroundwaterAllocationLong_1999-12-31.map
avgNonFossilGroundwaterAllocationShortIni = global_05min/initialConditions//avgNonFossilGroundwaterAllocationShort_1999-12-31.map
avgTotalGroundwaterAbstractionIni         = global_05min/initialConditions//avgTotalGroundwaterAbstraction_1999-12-31.map
avgTotalGroundwaterAllocationLongIni      = global_05min/initialConditions//avgTotalGroundwaterAllocationLong_1999-12-31.map
avgTotalGroundwaterAllocationShortIni     = global_05min/initialConditions//avgTotalGroundwaterAllocationShort_1999-12-31.map
#
# additional initial conditions for MODFLOW run 
relativeGroundwaterHeadIni                = global_05min/initialConditions//relativeGroundwaterHead_1999-12-31.map
baseflowIni                               = global_05min/initialConditions//baseflow_1999-12-31.map

# zonal IDs (scale) at which zonal allocation of groundwater is performed  
allocationSegmentsForGroundwater = global_05min/waterUse/abstraction_zones/abstraction_zones_30min_05min.map

# assumption for the minimum transmissivity value (unit: m2/day) that can be extracted (via capillary rise and/or groundwater abstraction) - optional
minimumTransmissivityForProductiveAquifer = 50.0
# - if None, abstraction and/or capillary rise can always occur everywhere and unlimited



[routingOptions]

debugWaterBalance = True

# drainage direction map
lddMap      = global_05min/routing/ldd_and_cell_area/lddsound_05min.map

# cell area (unit: m2)
cellAreaMap = global_05min/routing/ldd_and_cell_area/cellsize05min.correct.map

# routing method:
#~ routingMethod = kinematicWave
routingMethod    = accuTravelTime

# manning coefficient
manningsN   = 0.04

# Option for flood plain simulation
dynamicFloodPlain = True

# manning coefficient for floodplain
floodplainManningsN = 0.07


# channel gradient
gradient             = global_05min/routing/channel_properties/channel_gradient.map

# constant channel depth 
constantChannelDepth = global_05min/routing/channel_properties/bankfull_depth.map

# constant channel width (optional)
constantChannelWidth = global_05min/routing/channel_properties/bankfull_width.map

# minimum channel width (optional)
minimumChannelWidth  = global_05min/routing/channel_properties/bankfull_width.map

# channel properties for flooding
bankfullCapacity     = None
# - If None, it will be estimated from (bankfull) channel depth (m) and width (m) 


# files for relative elevation (above minimum dem) 
relativeElevationFiles  = global_05min/routing/channel_properties/dzRel%04d.map
relativeElevationLevels = 0.0, 0.01, 0.05, 0.10, 0.20, 0.30, 0.40, 0.50, 0.60, 0.70, 0.80, 0.90, 1.00


# composite crop factors for WaterBodies: 
cropCoefficientWaterNC = global_30min/routing/kc_surface_water/cropCoefficientForOpenWater.nc
minCropWaterKC         = 1.00


# lake and reservoir parameters
onlyNaturalWaterBodies = False
waterBodyInputNC       = global_05min/routing/surface_water_bodies/waterBodies5ArcMin.nc
# - All reservoirs are used for both natural and non-natural runs.
#   
#~ waterBodyInputNC       = global_05min/routing/surface_water_bodies/certain_year_only/waterBodies5ArcMin_1958.nc
#~ # Only reservoirs built in 1958 and before are considered in the simulation. 


# initial conditions:
#
# number of days (timesteps) that have been performed for spinning up initial conditions in the routing module (i.e. channelStorageIni, avgDischargeLongIni, avgDischargeShortIni, etc.)
timestepsToAvgDischargeIni     = global_05min/initialConditions/timestepsToAvgDischarge_1999-12-31.map
# Note that: 
# - maximum number of days (timesteps) to calculate long term average flow values (default: 5 years = 5 * 365 days = 1825)
# - maximum number of days (timesteps) to calculate short term average values (default: 1 month = 1 * 30 days = 30)
#
waterBodyStorageIni            = global_05min/initialConditions/waterBodyStorage_1999-12-31.map
channelStorageIni              = global_05min/initialConditions/channelStorage_1999-12-31.map
readAvlChannelStorageIni       = global_05min/initialConditions/readAvlChannelStorage_1999-12-31.map
avgDischargeLongIni            = global_05min/initialConditions/avgDischargeLong_1999-12-31.map
avgDischargeShortIni           = global_05min/initialConditions/avgDischargeShort_1999-12-31.map
m2tDischargeLongIni            = global_05min/initialConditions/m2tDischargeLong_1999-12-31.map
avgBaseflowLongIni             = global_05min/initialConditions/avgBaseflowLong_1999-12-31.map
riverbedExchangeIni            = global_05min/initialConditions/riverbedExchange_1999-12-31.map
#
# initial condition of sub-time step discharge (needed for estimating number of time steps in kinematic wave methods)
subDischargeIni                = global_05min/initialConditions/subDischarge_1999-12-31.map
#
avgLakeReservoirInflowShortIni = global_05min/initialConditions/avgLakeReservoirInflowShort_1999-12-31.map
avgLakeReservoirOutflowLongIni = global_05min/initialConditions/avgLakeReservoirOutflowLong_1999-12-31.map



[reportingOptions]

# output files that will be written in the disk in netcdf files:
# - daily resolution
#~ outDailyTotNC = discharge,totalRunoff,runoff
#~ outDailyTotNC = discharge,totalRunoff
#~ outDailyTotNC = discharge
outDailyTotNC    = discharge,channelStorage,floodVolume,infiltration,gwRecharge,baseflow,totalRunoff,runoff,totalEvaporation,directRunoff,interflowTotal,dynamicFracWat
# - monthly resolution
outMonthTotNC = totalEvaporation,waterBodyActEvaporation,actualET,irrPaddyWaterWithdrawal,irrNonPaddyWaterWithdrawal,domesticWaterWithdrawal,industryWaterWithdrawal,livestockWaterWithdrawal,precipitation,gwRecharge,runoff,totalRunoff,baseflow,directRunoff,interflowTotal,totalGroundwaterAbstraction,desalinationAbstraction,surfaceWaterAbstraction,nonFossilGroundwaterAbstraction,fossilGroundwaterAbstraction,irrGrossDemand,nonIrrGrossDemand,totalGrossDemand,nonIrrWaterConsumption,nonIrrReturnFlow,referencePotET,surfaceWaterInf
outMonthAvgNC = discharge,temperature,dynamicFracWat,surfaceWaterStorage,interceptStor,snowFreeWater,snowCoverSWE,topWaterLayer,storUppTotal,storLowTotal,storGroundwater,storGroundwaterFossil,totalActiveStorageThickness,totalWaterStorageThickness,satDegUpp,satDegLow,channelStorage,waterBodyStorage,accuRunoff,accuDirectRunoff,accuInterflowTotal,accuBaseflow,accuSurfaceWaterAbstraction,accuNetGroundwaterDischarge,accuNonIrrReturnFlow,accuWaterBodyActEvaporation,accuStorGroundwaterTotalVolume
outMonthEndNC = storGroundwater,storGroundwaterFossil,waterBodyStorage,channelStorage,totalWaterStorageThickness,totalActiveStorageThickness
# - annual resolution
outAnnuaTotNC = totalEvaporation,precipitation,gwRecharge,totalRunoff,baseflow,desalinationAbstraction,surfaceWaterAbstraction,nonFossilGroundwaterAbstraction,fossilGroundwaterAbstraction,totalGroundwaterAbstraction,totalAbstraction,irrGrossDemand,nonIrrGrossDemand,totalGrossDemand,nonIrrWaterConsumption,nonIrrReturnFlow,runoff,actualET,irrPaddyWaterWithdrawal,irrNonPaddyWaterWithdrawal,irrigationWaterWithdrawal,domesticWaterWithdrawal,industryWaterWithdrawal,livestockWaterWithdrawal,precipitation_at_irrigation,netLqWaterToSoil_at_irrigation,evaporation_from_irrigation,transpiration_from_irrigation,referencePotET,totalGroundwaterAbstraction,totalPotentialMaximumGrossDemand,totalPotentialMaximumIrrGrossDemand
outAnnuaAvgNC = temperature,discharge,surfaceWaterStorage,waterBodyStorage,interceptStor,snowFreeWater,snowCoverSWE,topWaterLayer,storUppTotal,storLowTotal,storGroundwater,storGroundwaterFossil,totalWaterStorageThickness,satDegUpp,satDegLow,channelStorage,waterBodyStorage,fractionWaterBodyEvaporation,fractionTotalEvaporation,fracSurfaceWaterAllocation,fracDesalinatedWaterAllocation,gwRecharge,accuRunoff,accuDirectRunoff,accuInterflowTotal,accuBaseflow,accuSurfaceWaterAbstraction,accuNetGroundwaterDischarge,accuNonIrrReturnFlow,accuWaterBodyActEvaporation,accuStorGroundwaterTotalVolume
outAnnuaEndNC = surfaceWaterStorage,interceptStor,snowFreeWater,snowCoverSWE,topWaterLayer,storUppTotal,storLowTotal,storGroundwater,storGroundwaterFossil,totalWaterStorageThickness
# - monthly and annual maxima
outMonthMaxNC = channelStorage,dynamicFracWat,floodVolume,floodDepth,surfaceWaterLevel,discharge,totalRunoff
outAnnuaMaxNC = None

# netcdf format and zlib setup
formatNetCDF = NETCDF4
zlib = True



[mergingOutputOptions]

# output variables/files that will be merged:
# - daily resolution
#~ outDailyTotNC = discharge,totalRunoff,runoff
#~ outDailyTotNC = discharge
outDailyTotNC    = None
# - monthly resolution
outMonthTotNC = totalEvaporation,gwRecharge,totalRunoff,runoff,totalGroundwaterAbstraction,precipitation,referencePotET,baseflow,surfaceWaterInf
outMonthAvgNC = discharge,temperature,surfaceWaterStorage,interceptStor,snowFreeWater,snowCoverSWE,topWaterLayer,storUppTotal,storLowTotal,storGroundwater,storGroundwaterFossil,totalWaterStorageThickness,channelStorage
outMonthEndNC = channelStorage,totalWaterStorageThickness,totalActiveStorageThickness
outAnnuaTotNC = totalEvaporation,precipitation,gwRecharge,totalRunoff,baseflow,desalinationAbstraction,surfaceWaterAbstraction,nonFossilGroundwaterAbstraction,fossilGroundwaterAbstraction,totalAbstraction,irrGrossDemand,nonIrrGrossDemand,totalGrossDemand,nonIrrWaterConsumption,nonIrrReturnFlow,runoff,actualET,irrPaddyWaterWithdrawal,irrigationWaterWithdrawal,domesticWaterWithdrawal,industryWaterWithdrawal,livestockWaterWithdrawal,precipitation_at_irrigation,netLqWaterToSoil_at_irrigation,evaporation_from_irrigation,transpiration_from_irrigation,referencePotET,totalGroundwaterAbstraction,totalPotentialMaximumGrossDemand,totalPotentialMaximumIrrGrossDemand
# - annual resolution
outAnnuaAvgNC = discharge,surfaceWaterStorage,interceptStor,snowFreeWater,snowCoverSWE,topWaterLayer,storUppTotal,storLowTotal,storGroundwater,storGroundwaterFossil,totalWaterStorageThickness,temperature,gwRecharge
outAnnuaEndNC = surfaceWaterStorage,interceptStor,snowFreeWater,snowCoverSWE,topWaterLayer,storUppTotal,storLowTotal,storGroundwater,storGroundwaterFossil,totalWaterStorageThickness
# monthly and annual maxima
#~ outMonthMaxNC = channelStorage,dynamicFracWat,floodVolume,floodDepth,surfaceWaterLevel,discharge,totalRunoff
outMonthMaxNC    = None
outAnnuaMaxNC    = None

# netcdf format and zlib setup
formatNetCDF = NETCDF4
zlib = True
