[globalOptions]

# Set the pcrglobwb output directory in an absolute path.

outputDir    = /scratch/depfg/sutan101/pcrglobwb_output_europe/europe_30min/version_2021-06-XX/europe_with_25yr_spinup/

# Set the input directory map in an absolute path. 
# - The input forcing and parameter directories and files will be relative to this.
inputDir     = /scratch/depfg/sutan101/data/pcrglobwb_input_arise/develop/
#~ inputDir  = /lustre1/0/einf1079/edwin/data/pcrglobwb_input_arise/develop/

# Map of clone (must be provided in PCRaster maps)
# - Spatial resolution and coverage are based on this map:
cloneMap     = /scratch/depfg/sutan101/data/pcrglobwb_input_arise/develop/europe_30sec/cloneMaps/version_2021-03-15/clone_5-30mins/clone_europe_30min.map
 
# The area/landmask of interest:
# If None, area/landmask is limited for cells with ldd value. 
landmask     = /scratch/depfg/sutan101/data/pcrglobwb_input_arise/develop/europe_30sec/cloneMaps/version_2021-03-15/clone_5-30mins/landmask_europe_30min_based_on_era5land_forcing.map


# TODO/FIXME: We set the landmask = None, as the current landmask excludes some parts of lakes located in the border. Note that while making new landmask, please also consider the extent of your forcing (in order to get rid off missing values of forcing that can lead to always-zero temperature cells, and therefore unrealistic snow).


# netcdf attributes for output files:
institution = Department of Physical Geography, Utrecht University
title       = PCR-GLOBWB 2 output (not coupled to MODFLOW), with human factors (non-natural)
description = by Edwin H. Sutanudjaja (contact: e.h.sutanudjaja@uu.nl), PCR-GLOBWB run with human factors (non-natural)


startTime = 1981-01-01
endTime   = 2019-12-31
# Format: YYYY-MM-DD ; The model runs on daily time step.


# spinning up options:
maxSpinUpsInYears = 25
minConvForSoilSto = 0.0
minConvForGwatSto = 0.0
minConvForChanSto = 0.0
minConvForTotlSto = 0.0

# option/directory for saving the spin-up directory 
spinUpOutputDir = True


[meteoOptions]

# Set the forcing temperature and precipitation files (relative to inputDir)
precipitationNC = /scratch/depfg/sutan101/data/meteo_europe_era5land/daily_after_remapcon/merged_1981-2019_after_remapcon/half_arcdeg/europe_era5-land_daily_total-preci_1981-2019/europe_era5-land_daily_total-preci_1981-2019_rempacon-30-arcmin_daily.nc
temperatureNC   = /scratch/depfg/sutan101/data/meteo_europe_era5land/daily_after_remapcon/merged_1981-2019_after_remapcon/half_arcdeg/europe_era5-land_daily_t2m-average_1981-2019/europe_era5-land_daily_t2m-average_1981-2019_rempacon-30-arcmin_daily.nc

# Method to calculate referencePotETP (reference potential evaporation+transpiration)
# options are "Hamon" and "Input" ; If "Input", the netcdf input file must be given:
referenceETPotMethod = Input
refETPotFileNC  = /scratch/depfg/sutan101/data/meteo_europe_era5land/ref_pot_et/version_2021-06-12/30min/referencePotET_dailyTot_output_30min.nc


# variable names in the forcing files
precipitationVariableName = tp
temperatureVariableName   = t2m
referenceEPotVariableName = reference_potential_evaporation


# conversion constants and factors to correct forcing values (optional) so that the units are in m.day-1 and degree Celcius                                                                                                           
temperatureConstant      = -273.15
temperatureFactor        = 1.0


# initial conditions:
avgAnnualPrecipitationIni    = 0.0
avgAnnualTemperatureIni      = 0.0
avgAnnualDiurnalDeltaTempIni = 0.0


# - for debugging
#~ outDailyTotNC = precipitation_before_downscaling,temperature_before_downscaling,referencePotET_before_downscaling,cellArea,avgAnnualPrecipitation        
outDailyTotNC    = None        
outMonthTotNC    = None 
outMonthAvgNC    = temperature_before_downscaling,temperature
outMonthEndNC    = None
outAnnuaTotNC    = precipitation_before_downscaling,referencePotET_before_downscaling,precipitation,referencePotET,avgAnnualPrecipitation
outAnnuaAvgNC    = None
outAnnuaEndNC    = None


[landSurfaceOptions]

debugWaterBalance = True

numberOfUpperSoilLayers = 2

# topography and soil parameters

# - they are used for all land cover types, unless they are are defined in certain land cover type options 
#   (e.g. different/various soil types for agriculture areas)  
topographyNC = global_30min/landSurface/topography/version_20210615_from_merit_dem/maps_covered_with_zero/topography_parameters_30min_version_june_2021_global_covered_with_zero.nc
# TODO: Make sure that the soil files are consistent among the resolutions.

#~ sutan101@gpu038.cluster:/scratch/depfg/sutan101/data/pcrglobwb_input_arise/develop/global_30min/landSurface/topography/version_20210615_from_merit_dem/maps_covered_with_zero$ ls -lah *
#~ -rw-r--r-- 1 sutan101 depfg 1.1M Jun 17 05:51 dem_average_topography_parameters_30min_version_june_2021_global_covered_with_zero.nc
#~ -rw-r--r-- 1 sutan101 depfg 1.1M Jun 17 05:51 dem_maximum_topography_parameters_30min_version_june_2021_global_covered_with_zero.nc
#~ -rw-r--r-- 1 sutan101 depfg 1.1M Jun 17 05:51 dem_minimum_topography_parameters_30min_version_june_2021_global_covered_with_zero.nc
#~ -rw-r--r-- 1 sutan101 depfg 1.1M Jun 17 05:51 dem_standard_deviation_topography_parameters_30min_version_june_2021_global_covered_with_zero.nc
#~ -rw-r--r-- 1 sutan101 depfg 1.1M Jun 17 05:51 dzRel0000_topography_parameters_30min_version_june_2021_global_covered_with_zero.nc
#~ -rw-r--r-- 1 sutan101 depfg 1.1M Jun 17 05:51 dzRel0001_topography_parameters_30min_version_june_2021_global_covered_with_zero.nc
#~ -rw-r--r-- 1 sutan101 depfg 1.1M Jun 17 05:51 dzRel0005_topography_parameters_30min_version_june_2021_global_covered_with_zero.nc
#~ -rw-r--r-- 1 sutan101 depfg 1.1M Jun 17 05:51 dzRel0010_topography_parameters_30min_version_june_2021_global_covered_with_zero.nc
#~ -rw-r--r-- 1 sutan101 depfg 1.1M Jun 17 05:51 dzRel0020_topography_parameters_30min_version_june_2021_global_covered_with_zero.nc
#~ -rw-r--r-- 1 sutan101 depfg 1.1M Jun 17 05:51 dzRel0030_topography_parameters_30min_version_june_2021_global_covered_with_zero.nc
#~ -rw-r--r-- 1 sutan101 depfg 1.1M Jun 17 05:51 dzRel0040_topography_parameters_30min_version_june_2021_global_covered_with_zero.nc
#~ -rw-r--r-- 1 sutan101 depfg 1.1M Jun 17 05:51 dzRel0050_topography_parameters_30min_version_june_2021_global_covered_with_zero.nc
#~ -rw-r--r-- 1 sutan101 depfg 1.1M Jun 17 05:51 dzRel0060_topography_parameters_30min_version_june_2021_global_covered_with_zero.nc
#~ -rw-r--r-- 1 sutan101 depfg 1.1M Jun 17 05:51 dzRel0070_topography_parameters_30min_version_june_2021_global_covered_with_zero.nc
#~ -rw-r--r-- 1 sutan101 depfg 1.1M Jun 17 05:51 dzRel0080_topography_parameters_30min_version_june_2021_global_covered_with_zero.nc
#~ -rw-r--r-- 1 sutan101 depfg 1.1M Jun 17 05:51 dzRel0090_topography_parameters_30min_version_june_2021_global_covered_with_zero.nc
#~ -rw-r--r-- 1 sutan101 depfg 1.1M Jun 17 05:51 dzRel0100_topography_parameters_30min_version_june_2021_global_covered_with_zero.nc
#~ -rw-r--r-- 1 sutan101 depfg 4.7K Jun 17 05:51 make_individual_maps_and_covered_with_zero.sh
#~ -rw-r--r-- 1 sutan101 depfg 1.1M Jun 17 05:51 orographyBeta_topography_parameters_30min_version_june_2021_global_covered_with_zero.nc
#~ -rw-r--r-- 1 sutan101 depfg 1.1M Jun 17 05:51 slopeLength_topography_parameters_30min_version_june_2021_global_covered_with_zero.nc
#~ -rw-r--r-- 1 sutan101 depfg 1.1M Jun 17 05:51 tanslope_topography_parameters_30min_version_june_2021_global_covered_with_zero.nc
#~ -rw-r--r-- 1 sutan101 depfg  20M Jun 17 05:51 topography_parameters_30min_version_june_2021_global_covered_with_zero.nc


soilPropertiesNC        = None
# - if soilPropertiesNC = None, the following soil parameters will be used
firstStorDepth          = global_30min/landSurface/soil/version_2021-05-XX/layerDepth_average_1_global_30arcmin.nc
secondStorDepth         = global_30min/landSurface/soil/version_2021-05-XX/layerDepth_average_2_global_30arcmin.nc
soilWaterStorageCap1    = global_30min/landSurface/soil/version_2021-05-XX/WHC_average_1_global_30arcmin.nc
soilWaterStorageCap2    = global_30min/landSurface/soil/version_2021-05-XX/WHC_average_2_global_30arcmin.nc
airEntryValue1          = global_30min/landSurface/soil/version_2021-05-XX/psiAir_average_1_global_30arcmin.nc
airEntryValue2          = global_30min/landSurface/soil/version_2021-05-XX/psiAir_average_2_global_30arcmin.nc
poreSizeBeta1           = global_30min/landSurface/soil/version_2021-05-XX/BCH_average_1_global_30arcmin.nc
poreSizeBeta2           = global_30min/landSurface/soil/version_2021-05-XX/BCH_average_2_global_30arcmin.nc
resVolWC1               = global_30min/landSurface/soil/version_2021-05-XX/vmcRes_average_1_global_30arcmin.nc
resVolWC2               = global_30min/landSurface/soil/version_2021-05-XX/vmcRes_average_2_global_30arcmin.nc
satVolWC1               = global_30min/landSurface/soil/version_2021-05-XX/vmcSat_average_1_global_30arcmin.nc
satVolWC2               = global_30min/landSurface/soil/version_2021-05-XX/vmcSat_average_2_global_30arcmin.nc
KSat1                   = global_30min/landSurface/soil/version_2021-05-XX/kSat_average_1_global_30arcmin.nc
KSat2                   = global_30min/landSurface/soil/version_2021-05-XX/kSat_average_2_global_30arcmin.nc
					    
percolationImp          = global_30min/landSurface/impeded_drainage/global_30min_impeded_drainage_permafrost_dsmw_correct_lats.nc

# TODO: Make sure that the soil files are consistent among the resolutions.

includeIrrigation = True


# land cover classes
landCoverTypes = forest,grassland,irrPaddy,irrNonPaddy
# TODO: Double check whether all land cover parameters consistent among resolutions.


# we have to correct land cover fractions
noLandCoverFractionCorrection = False


# a pcraster map/value defining irrigation efficiency (dimensionless) - optional
irrigationEfficiency = global_30min_from_gmd_paper_input/waterUse/irrigation/irrigation_efficiency/efficiency.nc


includeDomesticWaterDemand  = True
includeIndustryWaterDemand  = True
includeLivestockWaterDemand = True


# domestic, industrial and livestock water demand data (unit must be in m.day-1)
domesticWaterDemandFile  = global_30min_from_gmd_paper_input/waterUse/waterDemand/domestic_water_demand_version_october_2014.nc
industryWaterDemandFile  = global_30min_from_gmd_paper_input/waterUse/waterDemand/industrial_water_demand_version_october_2014.nc
livestockWaterDemandFile = global_30min_from_gmd_paper_input/waterUse/waterDemand/livestock_water_demand_1960-2012.nc


# desalination water supply (maximum/potential/capacity)
desalinationWater = global_30min_from_gmd_paper_input/waterUse/desalination/desalination_water_use_version_october_2014.nc


# zone IDs (scale) at which allocations of groundwater and surface water (as well as desalinated water) are performed  
allocationSegmentsForGroundSurfaceWater    = global_30min_from_gmd_paper_input/waterUse/abstraction_zones/abstraction_zones_60min_30min.nc


# pcraster maps defining the partitioning of groundwater - surface water source 
#
# - predefined surface water - groundwater partitioning for irrigation demand (e.g. based on Siebert, Global Map of Irrigation Areas version 5)
irrigationSurfaceWaterAbstractionFractionData           = global_30min_from_gmd_paper_input/waterUse/source_partitioning/surface_water_fraction_for_irrigation/AEI_SWFRAC.nc
# -- quality map
irrigationSurfaceWaterAbstractionFractionDataQuality    = global_30min_from_gmd_paper_input/waterUse/source_partitioning/surface_water_fraction_for_irrigation/AEI_QUAL.nc
#
# - threshold values defining the preference for surface water source for irrigation purpose
# -- treshold to maximize surface water irrigation use (cells with irrSurfaceWaterAbstractionFraction above this will prioritize irrigation surface water use)
treshold_to_maximize_irrigation_surface_water           = 0.50
# -- treshold to minimize fossil water withdrawal for irrigation (cells with irrSurfaceWaterAbstractionFraction below this have no fossil withdrawal for irrigation)
treshold_to_minimize_fossil_groundwater_irrigation      = 0.70
#
# - predefined surface water - groundwater partitioning for non irrigation demand (e.g. based on McDonald, 2014)
maximumNonIrrigationSurfaceWaterAbstractionFractionData = global_30min_from_gmd_paper_input/waterUse/source_partitioning/surface_water_fraction_for_non_irrigation/max_city_sw_fraction.nc


# option to skip extrapolation
noParameterExtrapolation = True




[forestOptions]

name = forest
debugWaterBalance = True

# snow module properties
snowModuleType      =  Simple
freezingT           =  0.0
degreeDayFactor     =  0.0055
snowWaterHoldingCap =  0.1
refreezingCoeff     =  0.05

# other paramater values
minTopWaterLayer  = 0.0
minCropKC         = 0.2


cropCoefficientNC = global_30min/landSurface/landCover/version_2021-05-04/netcdf/tall_crop_coefficient.nc
interceptCapNC    = global_30min/landSurface/landCover/version_2021-05-04/netcdf/tall_intercept_capacity.nc
coverFractionNC   = global_30min/landSurface/landCover/version_2021-05-04/netcdf/tall_cover_fraction.nc

landCoverMapsNC   = None
# If NC file is not provided, we have to provide the following pcraster maps:
fracVegCover      = global_30min/landSurface/landCover/version_2021-05-04/vegf_tall.map
minSoilDepthFrac  = global_30min/landSurface/landCover/version_2021-05-04/minf_tall.map
maxSoilDepthFrac  = global_30min/landSurface/landCover/version_2021-05-04/maxf_tall.map
rootFraction1     = global_30min/landSurface/landCover/version_2021-05-04/rfrac1_tall.map
rootFraction2     = global_30min/landSurface/landCover/version_2021-05-04/rfrac2_tall.map
maxRootDepth      = 1.0
# Note: The maxRootDepth is not used for non irrigated land cover type. 	
#
# Parameters for the Arno's scheme:
arnoBeta = None
# If arnoBeta is defined, the soil water capacity distribution is based on this.
# If arnoBeta is NOT defined, maxSoilDepthFrac must be defined such that arnoBeta will be calculated based on maxSoilDepthFrac and minSoilDepthFrac.


# initial conditions:
interceptStorIni = 0.0
snowCoverSWEIni  = 0.0
snowFreeWaterIni = 0.0
topWaterLayerIni = 0.0
storUppIni       = 0.0
storLowIni       = 0.0
interflowIni     = 0.0

noParameterExtrapolation = True


[grasslandOptions]

name = grassland
debugWaterBalance = True

# snow module properties
snowModuleType      =  Simple
freezingT           =  0.0
degreeDayFactor     =  0.0055
snowWaterHoldingCap =  0.1
refreezingCoeff     =  0.05

# other paramater values
minTopWaterLayer = 0.0
minCropKC        = 0.2


cropCoefficientNC = global_30min/landSurface/landCover/version_2021-05-04/netcdf/short_crop_coefficient.nc
interceptCapNC    = global_30min/landSurface/landCover/version_2021-05-04/netcdf/short_intercept_capacity.nc
coverFractionNC   = global_30min/landSurface/landCover/version_2021-05-04/netcdf/short_cover_fraction.nc

landCoverMapsNC   = None
# If NC file is not provided, we have to provide the following pcraster maps:
fracVegCover      = global_30min/landSurface/landCover/version_2021-05-04/vegf_short.map
minSoilDepthFrac  = global_30min/landSurface/landCover/version_2021-05-04/minf_short.map
maxSoilDepthFrac  = global_30min/landSurface/landCover/version_2021-05-04/maxf_short.map
rootFraction1     = global_30min/landSurface/landCover/version_2021-05-04/rfrac1_short.map
rootFraction2     = global_30min/landSurface/landCover/version_2021-05-04/rfrac2_short.map
maxRootDepth      = 0.5


# initial conditions:
interceptStorIni = 0.0
snowCoverSWEIni  = 0.0
snowFreeWaterIni = 0.0
topWaterLayerIni = 0.0
storUppIni       = 0.0
storLowIni       = 0.0
interflowIni     = 0.0


[irrPaddyOptions]

name = irrPaddy
debugWaterBalance = True

# snow module properties
snowModuleType      =  Simple
freezingT           =  0.0
degreeDayFactor     =  0.0055
snowWaterHoldingCap =  0.1
refreezingCoeff     =  0.05
#
landCoverMapsNC  = None
# If NC file is not provided, we have to provide the following values:
#
fracVegCover     = global_30min/landSurface/irrigated_fractions/global_estimate_irrigation_paddy_fraction_30min.nc
minSoilDepthFrac = 0.99
maxSoilDepthFrac = 1.01
rootFraction1    = global_30min_from_gmd_paper_input/landSurface/landCover/irrPaddy/rfrac1_paddy.nc
rootFraction2    = global_30min_from_gmd_paper_input/landSurface/landCover/irrPaddy/rfrac2_paddy.nc
maxRootDepth     = 0.5
#
# Parameters for the Arno's scheme:
arnoBeta = None
# If arnoBeta is defined, the soil water capacity distribution is based on this.
# If arnoBeta is NOT defined, maxSoilDepthFrac must be defined such that arnoBeta will be calculated based on maxSoilDepthFrac and minSoilDepthFrac.
#
# other paramater values
minTopWaterLayer = 0.05
minCropKC        = 0.2
cropDeplFactor   = 0.2
minInterceptCap  = 0.0002

cropCoefficientNC = global_30min_from_gmd_paper_input/landSurface/landCover/irrPaddy/Global_CropCoefficientKc-IrrPaddy_30min.nc


# initial conditions:
interceptStorIni = 0.0
snowCoverSWEIni  = 0.0
snowFreeWaterIni = 0.0
topWaterLayerIni = 0.0
storUppIni       = 0.0
storLowIni       = 0.0
interflowIni     = 0.0

noParameterExtrapolation = True


[irrNonPaddyOptions]

name = irrNonPaddy
debugWaterBalance = True

# snow module properties
snowModuleType      =  Simple
freezingT           =  0.0
degreeDayFactor     =  0.0055
snowWaterHoldingCap =  0.1
refreezingCoeff     =  0.05
#
landCoverMapsNC  = None
# If NC file is not provided, we have to provide the following values:
fracVegCover     = global_30min/landSurface/irrigated_fractions/global_estimate_irrigation_non_paddy_fraction_30min.nc
minSoilDepthFrac = 0.99
maxSoilDepthFrac = 1.01
rootFraction1    = global_30min_from_gmd_paper_input/landSurface/landCover/irrNonPaddy/rfrac1_nonpaddy.nc
rootFraction2    = global_30min_from_gmd_paper_input/landSurface/landCover/irrNonPaddy/rfrac2_nonpaddy.nc
maxRootDepth     = 1.0
#
# Parameters for the Arno's scheme:
arnoBeta = None
# If arnoBeta is defined, the soil water capacity distribution is based on this.
# If arnoBeta is NOT defined, maxSoilDepthFrac must be defined such that arnoBeta will be calculated based on maxSoilDepthFrac and minSoilDepthFrac.
#
# other paramater values
minTopWaterLayer = 0.0
minCropKC        = 0.2
cropDeplFactor   = 0.5
minInterceptCap  = 0.0002

cropCoefficientNC = global_30min_from_gmd_paper_input/landSurface/landCover/irrNonPaddy/Global_CropCoefficientKc-IrrNonPaddy_30min.nc

# initial conditions:
interceptStorIni = 0.0
snowCoverSWEIni  = 0.0
snowFreeWaterIni = 0.0
topWaterLayerIni = 0.0
storUppIni       = 0.0
storLowIni       = 0.0
interflowIni     = 0.0

noParameterExtrapolation = True


[groundwaterOptions]

debugWaterBalance = True

groundwaterPropertiesNC = None
specificYield  = global_30min/groundwater/properties/version_2021-02-XX/specific_yield_aquifer_30min.map
kSatAquifer    = global_30min/groundwater/properties/version_2021-02-XX/k_conductivity_aquifer_30min.map
recessionCoeff = global_30min/groundwater/properties/version_2021-02-XX/recession_coefficient_30min.map
#
# minimum value for groundwater recession coefficient (day-1) 
# - about 11 years
minRecessionCoeff = 0.00025
#~ # - about 27 years
#~ minRecessionCoeff = 1.0e-4


# some options for constraining groundwater abstraction
limitFossilGroundWaterAbstraction      = True
estimateOfRenewableGroundwaterCapacity = 0.0
estimateOfTotalGroundwaterThickness    = global_30min/groundwater/aquifer_thickness_estimate/version_2020-09-XX/thickness_05min_remapbil_to_30sec_filled_with_pcr_correct_lat_upscaled_to_30min_with_remapcon.nc
# minimum and maximum total groundwater thickness 
minimumTotalGroundwaterThickness       = 100.
maximumTotalGroundwaterThickness       = None


doNotExtrapolateThickness = True
noParameterExtrapolation  = True

# annual pumping capacity for each region (unit: billion cubic meter per year), should be given in a netcdf file
pumpingCapacityNC    = global_30min_from_gmd_paper_input/waterUse/groundwater_pumping_capacity/regional_abstraction_limit.nc

# zonal IDs (scale) at which zonal allocation of groundwater is performed  
allocationSegmentsForGroundwater    = global_30min_from_gmd_paper_input/waterUse/abstraction_zones/abstraction_zones_30min_30min.nc
#~ allocationSegmentsForGroundwater = False


# initial conditions:
#~ storGroundwaterIni                        = 0.0
storGroundwaterIni                           = global_30min_from_gmd_paper_input/initialConditions/non-natural/consistent_run_201903XX/1981/nc_without_units/storGroundwater_1981-12-31.nc

storGroundwaterFossilIni                     = Maximum
avgNonFossilGroundwaterAllocationLongIni     = 0.0
avgNonFossilGroundwaterAllocationShortIni    = 0.0
avgTotalGroundwaterAbstractionIni            = 0.0
avgTotalGroundwaterAllocationLongIni         = 0.0
avgTotalGroundwaterAllocationShortIni        = 0.0
relativeGroundwaterHeadIni                   = 0.0
baseflowIni                                  = 0.0


[routingOptions]

debugWaterBalance = True

# drainage direction map
lddMap      = global_30min/routing/surface_water_bodies/version_20210615/lddsound_30min_version_20210615.map

# cell area (unit: m2)
cellAreaMap = global_30min_from_gmd_paper_input/routing/ldd_and_cell_area/cellarea30min.nc


# routing method:
routingMethod = accuTravelTime

# manning coefficient
manningsN   = 0.04

# Option for flood plain simulation
dynamicFloodPlain = True

# manning coefficient for floodplain
floodplainManningsN = 0.07

#~ sutan101@gpu038.cluster:/scratch/depfg/sutan101/data/pcrglobwb_input_arise/develop/global_30min/routing/channel_properties/version_20210615_from_merit_dem/maps_covered_with_zero$ ls -lah *
#~ -rw-r--r-- 1 sutan101 depfg 1.1M Jun 17 13:02 bankfull_depth_channel_parameters_30min_version_june_2021_global_covered_with_zero.nc
#~ -rw-r--r-- 1 sutan101 depfg 1.1M Jun 17 13:03 bankfull_width_channel_parameters_30min_version_june_2021_global_covered_with_zero.nc
#~ -rw-r--r-- 1 sutan101 depfg 7.1M Jun 17 13:01 channel_parameters_30min_version_june_2021_global_covered_with_zero.nc
#~ -rw-r--r-- 1 sutan101 depfg 1.1M Jun 17 13:03 gradient_channel_parameters_30min_version_june_2021_global_covered_with_zero.nc

# channel gradient
gradient             = global_30min/routing/channel_properties/version_20210615_from_merit_dem/maps_covered_with_zero/gradient_channel_parameters_30min_version_june_2021_global_covered_with_zero.nc

# constant channel depth 
constantChannelDepth = global_30min/routing/channel_properties/version_20210615_from_merit_dem/maps_covered_with_zero/bankfull_depth_channel_parameters_30min_version_june_2021_global_covered_with_zero.nc

# constant channel width (optional)
constantChannelWidth = global_30min/routing/channel_properties/version_20210615_from_merit_dem/maps_covered_with_zero/bankfull_width_channel_parameters_30min_version_june_2021_global_covered_with_zero.nc

# minimum channel width (optional)
minimumChannelWidth  = global_30min/routing/channel_properties/version_20210615_from_merit_dem/maps_covered_with_zero/bankfull_width_channel_parameters_30min_version_june_2021_global_covered_with_zero.nc

# channel properties for flooding
bankfullCapacity     = None
# - If None, it will be estimated from (bankfull) channel depth (m) and width (m) 

# files for relative elevation (above minimum dem) 
relativeElevationFiles  = global_30min/landSurface/topography/version_20210615_from_merit_dem/maps_covered_with_zero/dzRel%04d_topography_parameters_30min_version_june_2021_global_covered_with_zero.nc
relativeElevationLevels = 0.0, 0.01, 0.05, 0.10, 0.20, 0.30, 0.40, 0.50, 0.60, 0.70, 0.80, 0.90, 1.00


# composite crop factors for WaterBodies: 
cropCoefficientWaterNC = global_30min_from_gmd_paper_input/routing/kc_surface_water/cropCoefficientForOpenWater.nc
minCropWaterKC         = 1.00


# lake and reservoir parameters
includeWaterBodies        = True
waterBodyInputNC          = global_30min/routing/surface_water_bodies/version_20210615/lakes_and_reservoirs_30min_global_2019-only_version_20210615.nc
#~ fracWaterInp           = None
#~ waterBodyIds           = None
#~ waterBodyTyp           = None
#~ resMaxCapInp           = None
#~ resSfAreaInp           = None
onlyNaturalWaterBodies    = False

# initial conditions:
waterBodyStorageIni            = 0.0
channelStorageIni              = 0.0
readAvlChannelStorageIni       = 0.0
avgDischargeLongIni            = 0.0
avgDischargeShortIni           = 0.0
m2tDischargeLongIni            = 0.0
avgBaseflowLongIni             = 0.0
riverbedExchangeIni            = 0.0
subDischargeIni                = 0.0
avgLakeReservoirInflowShortIni = 0.0
avgLakeReservoirOutflowLongIni = 0.0
timestepsToAvgDischargeIni     = 0.0

[reportingOptions]

# landmask for reporting
landmask_for_reporting = None

# output files that will be written in the disk in netcdf files:
# - daily resolution
outDailyTotNC    = discharge,totalRunoff,gwRecharge,totalGroundwaterAbstraction,surfaceWaterStorage,temperature,precipitation,referencePotET,satDegUpp,satDegLow,satDegTotal,totalEvaporation
#~ outDailyTotNC = discharge,totalRunoff
# - monthly resolution
outMonthTotNC = actualET,irrPaddyWaterWithdrawal,irrNonPaddyWaterWithdrawal,domesticWaterWithdrawal,industryWaterWithdrawal,livestockWaterWithdrawal,runoff,totalRunoff,baseflow,directRunoff,interflowTotal,totalGroundwaterAbstraction,desalinationAbstraction,surfaceWaterAbstraction,nonFossilGroundwaterAbstraction,fossilGroundwaterAbstraction,irrGrossDemand,nonIrrGrossDemand,totalGrossDemand,nonIrrWaterConsumption,nonIrrReturnFlow,precipitation,gwRecharge,surfaceWaterInf,referencePotET,totalEvaporation,totalPotentialEvaporation,totLandSurfaceActuaET,totalLandSurfacePotET,waterBodyActEvaporation,waterBodyPotEvaporation
outMonthAvgNC = discharge,temperature,dynamicFracWat,surfaceWaterStorage,interceptStor,snowFreeWater,snowCoverSWE,topWaterLayer,storUppTotal,storLowTotal,storGroundwater,storGroundwaterFossil,totalActiveStorageThickness,totalWaterStorageThickness,satDegUpp,satDegLow,channelStorage,waterBodyStorage
outMonthEndNC = storGroundwater,storGroundwaterFossil,waterBodyStorage,channelStorage,totalWaterStorageThickness,totalActiveStorageThickness
# - annual resolution
outAnnuaTotNC = totalEvaporation,precipitation,gwRecharge,totalRunoff,baseflow,desalinationAbstraction,surfaceWaterAbstraction,nonFossilGroundwaterAbstraction,fossilGroundwaterAbstraction,totalGroundwaterAbstraction,totalAbstraction,irrGrossDemand,nonIrrGrossDemand,totalGrossDemand,nonIrrWaterConsumption,nonIrrReturnFlow,runoff,actualET,irrPaddyWaterWithdrawal,irrNonPaddyWaterWithdrawal,irrigationWaterWithdrawal,domesticWaterWithdrawal,industryWaterWithdrawal,livestockWaterWithdrawal,precipitation_at_irrigation,netLqWaterToSoil_at_irrigation,evaporation_from_irrigation,transpiration_from_irrigation,referencePotET
outAnnuaAvgNC = temperature,discharge,surfaceWaterStorage,waterBodyStorage,interceptStor,snowFreeWater,snowCoverSWE,topWaterLayer,storUppTotal,storLowTotal,storGroundwater,storGroundwaterFossil,totalWaterStorageThickness,satDegUpp,satDegLow,channelStorage,waterBodyStorage,fractionWaterBodyEvaporation,fractionTotalEvaporation,fracSurfaceWaterAllocation,fracDesalinatedWaterAllocation,gwRecharge
outAnnuaEndNC = surfaceWaterStorage,interceptStor,snowFreeWater,snowCoverSWE,topWaterLayer,storUppTotal,storLowTotal,storGroundwater,storGroundwaterFossil,totalWaterStorageThickness
# - monthly and annual maxima
outMonthMaxNC = channelStorage,dynamicFracWat,floodVolume,floodDepth,surfaceWaterLevel,discharge,totalRunoff
outAnnuaMaxNC = None

#~ # netcdf format and zlib setup
#~ formatNetCDF = NETCDF4
#~ zlib = True


