[globalOptions]

# Set the input directory map in an absolute path. 
# - The input forcing and parameter directories will be relative to this.
inputDir  = /projects/0/dfguu/data/hydroworld/

# set the pcrglobwb output directory in an absolute path
outputDir= /scratch-shared/graafi/historic_human/from1960/

# the following is needed for a parallel run
# PART ONE
cloneAreas = part_one
#~ # PART TWO
#cloneAreas = part_two

# Map of clone (must be provided in PCRaster maps)
# - Spatial resolution and coverage are based on this map:
cloneMap = others/05ArcMinCloneMaps/new_masks_from_top/clone_%3s.map

# The area/landmask of interest:
# If None, area/landmask is limited for cells with ldd value. 
landmask = others/05ArcMinCloneMaps/new_masks_from_top/mask_%3s.map

# netcdf attributes for output files:
institution = Department of Physical Geography, Utrecht University
title       = PCR-GLOBWB 2 output (coupled to MODFLOW)
description = by Edwin H. Sutanudjaja and Inge E.M. de Graaf

startTime = 1960-01-01
endTime   = 2010-12-31
# Format: YYYY-MM-DD ; The current model runs on the daily time step.

# spinning up options:
maxSpinUpsInYears = 0
minConvForSoilSto = 0.0
minConvForGwatSto = 0.0
minConvForChanSto = 0.0
minConvForTotlSto = 0.0

# option/directory for saving the spin-up directory 
spinUpOutputDir = True

[globalMergingAndModflowOptions]

# the global clone map
cloneMap = PCRGLOBWB20/input5min/routing/lddsound_05min.map

# The area/landmask of interest:
landmask = None
# If None, area/landmask is limited for cells with ldd value. 

# option to indicate if an online coupling between PCR-GLOBWB and MODFLOW models used
online_coupling_between_pcrglobwb_and_modflow = True

# temporary modflow folder:
tmp_modflow_dir = /dev/shm/inge/pcrglobwb_modflow/

[prefactorOptions]

linear_multiplier_for_refPotET         = 1.0
linear_multiplier_for_degreeDayFactor  = 1.0
linear_multiplier_for_minSoilDepthFrac = 1.0
log_10_multiplier_for_kSat             = 0.0
linear_multiplier_for_storCap          = 1.0
log_10_multiplier_for_recessionCoeff   = 0.0

[meteoOptions]

# Set the forcing temperature and precipitation files (relative to inputDir)
precipitationNC = forcing/ERA20C/CRU-TS3.23_ERA20C_daily_precipitation_1901_to_2010.nc
temperatureNC   = forcing/ERA20C/CRU-TS3.23_ERA20C_daily_temperature_1901_to_2010.nc

# Method to calculate referencePotETP (reference potential evaporation+transpiration)
# options are "Hamon" and "Input" ; If "Input", the netcdf input file must be given:
referenceETPotMethod = Input
refETPotFileNC  = forcing/ERA20C/CRU-TS3.23_ERA20C_daily_referencePotET_1901_to_2010.nc

[meteoDownscalingOptions]                                                                                                                                        
                                                                                                                                                                 
downscalePrecipitation  = False                                                                                                                                   
downscaleTemperature    = True                                                                                                                                   
downscaleReferenceETPot = False                                                                                                                                   
                                                                                                                                                                 
# downscaling (based on the digital elevation model):                                                                                                            
# The downscaling will be performed by providing the "cellIds" (meteoDownscaleIds) of lower resolution cells.                                                    
meteoDownscaleIds = PCRGLOBWB20/input5min/meteo/downscalingFrom30ArcMin/uniqueIds_30min.map                                                                      
highResolutionDEM = PCRGLOBWB20/input5min/meteo/downscalingFrom30ArcMin/gtopo05min.map                                                                           
                                                                                                                                                                 
# lapse rates:                                                                                                                                                   
temperLapseRateNC = PCRGLOBWB20/input5min/meteo/downscalingFrom30ArcMin/temperature_slope.nc                                                                     
precipLapseRateNC = PCRGLOBWB20/input5min/meteo/downscalingFrom30ArcMin/precipitation_slope.nc                                                                   
                                                                                                                                                                 
# downscaling criteria (TODO: remove these):                                                                                                                     
temperatCorrelNC  = PCRGLOBWB20/input5min/meteo/downscalingFrom30ArcMin/temperature_correl.nc                                                                     
precipitCorrelNC  = PCRGLOBWB20/input5min/meteo/downscalingFrom30ArcMin/precipitation_correl.nc                                                                   
                                                                                                                                                                 
# windows length (unit: arc-degree) for smoothing/averaging forcing data (not recommended):                                                                      
smoothingWindowsLength = 0                                                                                                                                       

[landSurfaceOptions]
debugWaterBalance = True

numberOfUpperSoilLayers = 2

# soil and parameters
# - they are used for all land cover types, unless they are are defined in certain land cover type options 
#   (e.g. different/various soil types for agriculture areas)  
topographyNC     = /projects/0/dfguu/users/edwin/data/floodplain_05arcmin_world_final/based_on_daily_runoff/topography_parameters_5_arcmin_october_2015.nc
soilPropertiesNC = PCRGLOBWB20/input5min/landSurface/soil/v03Jul2013/soilProperties5ArcMin.nc

includeIrrigation = True

# a pcraster map/value defining irrigation efficiency (dimensionless) - optional
irrigationEfficiency = PCRGLOBWB20/input30min/landSurface/waterDemand/efficiency/efficiency.map

# netcdf time series for historical expansion of irrigation areas (unit: hectares). 
# Note: The resolution of this map must be consisten with the resolution of cellArea. 
historicalIrrigationArea = PCRGLOBWB20/input5min/landSurface/waterDemand/irrigated_areas/irrigationArea05ArcMin.nc

includeDomesticWaterDemand  = True
includeIndustryWaterDemand  = True
includeLivestockWaterDemand = True

# domestic and industrial water demand data (unit must be in m.day-1)
domesticWaterDemandFile  = /projects/0/dfguu/users/edwin/data/data_from_yoshi/GLOWASIS_water_demand/05min/remapbil/domestic_water_demand_5min_meter_per_day_date_fixed.nc
industryWaterDemandFile  = /projects/0/dfguu/users/edwin/data/data_from_yoshi/GLOWASIS_water_demand/05min/remapbil/industry_water_demand_5min_meter_per_day_date_fixed.nc
livestockWaterDemandFile = /projects/0/dfguu/users/edwin/data/data_from_yoshi/GLOWASIS_water_demand/05min/remapbil/livestock_water_demand_5min_meter_per_day_date_fixed.nc

# desalination water supply (maximum/potential/capacity)
desalinationWater = /projects/0/dfguu/users/inge/climateInputs/desalination_water_avg.nc

# zone IDs (scale) at which allocations of groundwater and surface water (as well as desalinated water) are performed  
allocationSegmentsForGroundSurfaceWater = others/irrigationZones/one_arc_degree/uniqueIds60min.nom.map

limitAbstraction = True

# pcraster maps defining the partitioning of groundwater - surface water source to minimize  
# - predefined surface water - groundwater partitioning for irrigation demand (based on Siebert, 1972/2013: Global Map of Irrigation Areas version 5)
irrigationSurfaceWaterAbstractionFractionData        = /projects/0/dfguu/users/edwin/data/siebert_map/05min/AEI_SWFRAC.map
irrigationSurfaceWaterAbstractionFractionDataQuality = /projects/0/dfguu/users/edwin/data/siebert_map/05min/AEI_QUAL.map
# - predefined surface water - groundwater partitioning for irrigation demand (based on McDonald, 2014)
maximumNonIrrigationSurfaceWaterAbstractionFractionData = /projects/0/dfguu/users/edwin/data/McDonald_water_infrastructure/max_city_sw_fraction.map
# threshold values defining the preference for surface water source for irrigation purpose
# - treshold to maximize surface water irrigation use (cells with irrSurfaceWaterAbstractionFraction above this will prioritize irrigation surface water use)
treshold_to_maximize_irrigation_surface_water      = 0.50
# - treshold to minimize fossil water withdrawal for irrigation (cells with irrSurfaceWaterAbstractionFraction below this have no fossil withdrawal for irrigation)
treshold_to_minimize_fossil_groundwater_irrigation = 0.70

[forestOptions]

name = forest
debugWaterBalance = True

# snow module properties
snowModuleType      =  Simple
freezingT           =  0.0
degreeDayFactor     =  0.0025
snowWaterHoldingCap =  0.1
refreezingCoeff     =  0.05

# other paramater values
minTopWaterLayer = 0.0
minCropKC        = 0.2

#~ landCoverMapsNC = PCRGLOBWB20/input5min/landCover/forest/forestProperties5ArcMin.nc
landCoverMapsNC  = None
# If NC file is not provided, we have to provide the following pcraster maps:
fracVegCover     = PCRGLOBWB20/input5min/landCover/forest/vegf_tall.map
minSoilDepthFrac = PCRGLOBWB20/input30min/landCover/forest/minf_tall_permafrost.map
maxSoilDepthFrac = PCRGLOBWB20/input30min/landCover/forest/maxf_tall.map
rootFraction1    = PCRGLOBWB20/input5min/landCover/forest/rfrac1_tall.map
rootFraction2    = PCRGLOBWB20/input5min/landCover/forest/rfrac2_tall.map	
maxRootDepth     = PCRGLOBWB20/input5min/landCover/forest/maxrootdepth_tall.map	

# Parameters for the Arno's scheme:
arnoBeta = None
# If arnoBeta is defined, the soil water capacity distribution is based on this.
# If arnoBeta is NOT defined, maxSoilDepthFrac must be defined such that arnoBeta will be calculated based on maxSoilDepthFrac and minSoilDepthFrac.

cropCoefficientNC = PCRGLOBWB20/input5min/landCover_v05Jul2013/Global/netcdf/cropCoefficientForest.nc
interceptCapNC    = PCRGLOBWB20/input5min/landCover_v05Jul2013/Global/netcdf/interceptCapInputForest.nc
coverFractionNC   = PCRGLOBWB20/input5min/landCover_v05Jul2013/Global/netcdf/coverFractionInputForest.nc

# initial conditions:
interceptStorIni = /scratch-shared/graafi/historic_human/spinup/global/states/interceptStor_forest_1960-12-31.map
snowCoverSWEIni  = /scratch-shared/graafi/historic_human/spinup/global/states/snowCoverSWE_forest_1960-12-31.map
snowFreeWaterIni = /scratch-shared/graafi/historic_human/spinup/global/states/snowFreeWater_forest_1960-12-31.map
topWaterLayerIni = /scratch-shared/graafi/historic_human/spinup/global/states/topWaterLayer_forest_1960-12-31.map
storUppIni       = /scratch-shared/graafi/historic_human/spinup/global/states/storUpp_forest_1960-12-31.map
storLowIni       = /scratch-shared/graafi/historic_human/spinup/global/states/storLow_forest_1960-12-31.map
interflowIni     = /scratch-shared/graafi/historic_human/spinup/global/states/interflow_forest_1960-12-31.map

[grasslandOptions]

name = grassland
debugWaterBalance = True

# snow module properties
snowModuleType      =  Simple
freezingT           =  0.0
degreeDayFactor     =  0.0025
snowWaterHoldingCap =  0.1
refreezingCoeff     =  0.05

# other paramater values
minTopWaterLayer = 0.0
minCropKC        = 0.2

#~ landCoverMapsNC = PCRGLOBWB20/input5min/landCover/grassland/grasslandProperties5ArcMin.nc
landCoverMapsNC  = None
# If NC file is not provided, we have to provide the following values:
fracVegCover     = PCRGLOBWB20/input5min/landCover/grassland/vegf_short.map
minSoilDepthFrac = PCRGLOBWB20/input30min/landCover/grassland/minf_short_permafrost.map
maxSoilDepthFrac = PCRGLOBWB20/input30min/landCover/grassland/maxf_short.map
rootFraction1    = PCRGLOBWB20/input5min/landCover/grassland/rfrac1_short.map
rootFraction2    = PCRGLOBWB20/input5min/landCover/grassland/rfrac2_short.map	
maxRootDepth     = PCRGLOBWB20/input5min/landCover/grassland/maxrootdepth_short.map	
#
# Parameters for the Arno's scheme:
arnoBeta = None
# If arnoBeta is defined, the soil water capacity distribution is based on this.
# If arnoBeta is NOT defined, maxSoilDepthFrac must be defined such that arnoBeta will be calculated based on maxSoilDepthFrac and minSoilDepthFrac.

cropCoefficientNC = PCRGLOBWB20/input5min/landCover_v05Jul2013/Global/netcdf/cropCoefficientGrassland.nc
interceptCapNC    = PCRGLOBWB20/input5min/landCover_v05Jul2013/Global/netcdf/interceptCapInputGrassland.nc
coverFractionNC   = PCRGLOBWB20/input5min/landCover_v05Jul2013/Global/netcdf/coverFractionInputGrassland.nc

# initial conditions:
interceptStorIni = /scratch-shared/graafi/historic_human/spinup/global/states/interceptStor_grassland_1960-12-31.map
snowCoverSWEIni  = /scratch-shared/graafi/historic_human/spinup/global/states/snowCoverSWE_grassland_1960-12-31.map
snowFreeWaterIni = /scratch-shared/graafi/historic_human/spinup/global/states/snowFreeWater_grassland_1960-12-31.map
topWaterLayerIni = /scratch-shared/graafi/historic_human/spinup/global/states/topWaterLayer_grassland_1960-12-31.map
storUppIni       = /scratch-shared/graafi/historic_human/spinup/global/states/storUpp_grassland_1960-12-31.map
storLowIni       = /scratch-shared/graafi/historic_human/spinup/global/states/storLow_grassland_1960-12-31.map
interflowIni     = /scratch-shared/graafi/historic_human/spinup/global/states/interflow_grassland_1960-12-31.map

[irrPaddyOptions]

name = irrPaddy
debugWaterBalance = True

# snow module properties
snowModuleType      =  Simple
freezingT           =  0.0
degreeDayFactor     =  0.0025
snowWaterHoldingCap =  0.1
refreezingCoeff     =  0.05
#
landCoverMapsNC  = None
# If NC file is not provided, we have to provide the following values:
fracVegCover     = PCRGLOBWB20/input5min/landCover/irrigation/fractionPaddy.map
minSoilDepthFrac = PCRGLOBWB20/input30min/landCover/irrPaddy/minf_paddy_permafrost.map
maxSoilDepthFrac = PCRGLOBWB20/input30min/landCover/irrPaddy/maxf_paddy.map
rootFraction1    = PCRGLOBWB20/input30min/landCover/irrPaddy/rfrac1_paddy.map
rootFraction2    = PCRGLOBWB20/input30min/landCover/irrPaddy/rfrac2_paddy.map
maxRootDepth     = 0.5
#
# Parameters for the Arno's scheme:
arnoBeta = None
# If arnoBeta is defined, the soil water capacity distribution is based on this.
# If arnoBeta is NOT defined, maxSoilDepthFrac must be defined such that arnoBeta will be calculated based on maxSoilDepthFrac and minSoilDepthFrac.
#
# other paramater values
minTopWaterLayer = 0.05
minCropKC        = 0.2
cropDeplFactor   = 0.2
minInterceptCap  = 0.0002

cropCoefficientNC = PCRGLOBWB20/input30min/landCover/irrPaddy/Global_CropCoefficientKc-IrrPaddy_30min.nc

# initial conditions:
interceptStorIni = /scratch-shared/graafi/historic_human/spinup/global/states/interceptStor_irrPaddy_1960-12-31.map
snowCoverSWEIni  = /scratch-shared/graafi/historic_human/spinup/global/states/snowCoverSWE_irrPaddy_1960-12-31.map
snowFreeWaterIni = /scratch-shared/graafi/historic_human/spinup/global/states/snowFreeWater_irrPaddy_1960-12-31.map
topWaterLayerIni = /scratch-shared/graafi/historic_human/spinup/global/global/states/topWaterLayer_irrPaddy_1960-12-31.map
storUppIni       = /scratch-shared/graafi/historic_human/spinup/global/global/states/storUpp_irrPaddy_1960-12-31.map
storLowIni       = /scratch-shared/graafi/historic_human/spinup/global/global/states/storLow_irrPaddy_1960-12-31.map
interflowIni     = /scratch-shared/graafi/historic_human/spinup/global//global/states/interflow_irrPaddy_1960-12-31.map

[irrNonPaddyOptions]

name = irrNonPaddy
debugWaterBalance = True

# snow module properties
snowModuleType      =  Simple
freezingT           =  0.0
degreeDayFactor     =  0.0025
snowWaterHoldingCap =  0.1
refreezingCoeff     =  0.05
#
landCoverMapsNC  = None
# If NC file is not provided, we have to provide the following values:
fracVegCover     = PCRGLOBWB20/input5min/landCover/irrigation/fractionNonPaddy.map
minSoilDepthFrac = PCRGLOBWB20/input30min/landCover/irrNonPaddy/minf_nonpaddy_permafrost.map
maxSoilDepthFrac = PCRGLOBWB20/input30min/landCover/irrNonPaddy/maxf_nonpaddy.map
rootFraction1    = PCRGLOBWB20/input30min/landCover/irrNonPaddy/rfrac1_nonpaddy.map
rootFraction2    = PCRGLOBWB20/input30min/landCover/irrNonPaddy/rfrac2_nonpaddy.map
maxRootDepth     = 1.0
#
# Parameters for the Arno's scheme:
arnoBeta = None
# If arnoBeta is defined, the soil water capacity distribution is based on this.
# If arnoBeta is NOT defined, maxSoilDepthFrac must be defined such that arnoBeta will be calculated based on maxSoilDepthFrac and minSoilDepthFrac.
#
# other paramater values
minTopWaterLayer = 0.0
minCropKC        = 0.2
cropDeplFactor   = 0.5
minInterceptCap  = 0.0002

cropCoefficientNC = PCRGLOBWB20/input30min/landCover/irrNonPaddy/Global_CropCoefficientKc-IrrNonPaddy_30min.nc

# initial conditions:
interceptStorIni = /scratch-shared/graafi/historic_human/spinup/global/states/interceptStor_irrNonPaddy_1960-12-31.map
snowCoverSWEIni  = /scratch-shared/graafi/historic_human/spinup/global/states/snowCoverSWE_irrNonPaddy_1960-12-31.map
snowFreeWaterIni = /scratch-shared/graafi/historic_human/spinup/global/global/states/snowFreeWater_irrNonPaddy_1960-12-31.map
topWaterLayerIni = /scratch-shared/graafi/historic_human/spinup/global/global/states/topWaterLayer_irrNonPaddy_1960-12-31.map
storUppIni       = /scratch-shared/graafi/historic_human/spinup/global/global/states/storUpp_irrNonPaddy_1960-12-31.map
storLowIni       = /scratch-shared/graafi/historic_human/spinup/global/global/states/storLow_irrNonPaddy_1960-12-31.map
interflowIni     = /scratch-shared/graafi/historic_human/spinup/global/global/states/interflow_irrNonPaddy_1960-12-31.map

[groundwaterOptions]

debugWaterBalance = True

groundwaterPropertiesNC = PCRGLOBWB20/input5min/groundwater/groundwaterProperties5ArcMin.nc

# minimum value for groundwater recession coefficient (day-1)
minRecessionCoeff = 1.0e-4

# some options for constraining groundwater abstraction
limitFossilGroundWaterAbstraction      = True
estimateOfRenewableGroundwaterCapacity = 0.0
estimateOfTotalGroundwaterThickness    = /projects/0/dfguu/users/Inge_MFcoupled/aquiferThickness_WORLD.05min.cover.map
estimateConfinedLayers = /projects/0/dfguu/users/edwin/data/inge_confining_layer_parameters/confining_layer_thickness_edwin.map

# minimum and maximum total groundwater thickness 
minimumTotalGroundwaterThickness       = 100.
maximumTotalGroundwaterThickness       = 1000.

# annual pumping capacity for each region (unit: billion cubic meter per year), should be given in a netcdf file
pumpingCapacityNC = /projects/0/dfguu/users/edwin/data/limit_gw_abstraction_half_arc_degree/design_pumping_capacity/regional_abstraction_limit.nc

# initial conditions for pumping behaviors
avgNonFossilGroundwaterAllocationLongIni  = 0.0
avgNonFossilGroundwaterAllocationShortIni = 0.0
avgTotalGroundwaterAbstractionIni         = 0.0
avgTotalGroundwaterAllocationLongIni      = 0.0
avgTotalGroundwaterAllocationShortIni     = 0.0

#
# initial conditions for MODFLOW run 
storGroundwaterIni                        = /scratch-shared/graafi/historic_human/spinup//modflow/transient/maps/storGroundwater_1960-12-31.map
storGroundwaterFossilIni                  = 0.0                                              
relativeGroundwaterHeadIni                = /scratch-shared/graafi/historic_human/spinup/modflow/transient/maps/relativeGroundwaterHead_1960-12-31.map
baseflowIni                               = /scratch-shared/graafi/historic_human/spinup/modflow/transient/maps/baseflow_1960-12-31.map

allocationSegmentsForGroundwater = others/irrigationZones/half_arc_degree/uniqueIds30min.nom.map

# assumption for the minimum transmissivity value (unit: m2/day) that can be extracted (via capillary rise and/or groundwater abstraction) 
minimumTransmissivityForProductiveAquifer = 10.0
maximumTransmissivityForProductiveAquifer = 1000.   
# - if None, abstraction and/or capillary rise can always occur everywhere and unlimited


[modflowParameterOptions]

# number of modflow layers:
number_of_layers = 2

# confining layer properties (thickness in meter, maximum vertical conductivity in m/day, maximum resistance in day) 
usePreDefinedConfiningLayer               = True
confiningLayerThickness                   = /projects/0/dfguu/users/edwin/data/inge_confining_layer_parameters/confining_layer_thickness_edwin.map
estimateConfinedLayers = /projects/0/dfguu/users/edwin/data/inge_confining_layer_parameters/confining_layer_thickness_edwin.map
maximumConfiningLayerVerticalConductivity = 0.1
maximumConfiningLayerResistance           = 20000.

# TODO: Define aquifer specific yield/storage coefficient value for each layer 
# TODO: Define aquifer conductivity values for each layer 
# - At this moment, aquifer parameters for MODFLOW (specific yield/storage coefficient and conductivity values) are
#   based on "groundwaterOptions" (e.g. "groundwaterPropertiesNC" and "estimateOfTotalGroundwaterThickness").  

# minimum and maximum values for transmissivities (unit: m/day)
minTransmissivity = 10.0
maxTransmissivity = 1000.
#* for sensitvity analysis
factorcond= 0.1

# netcdf files contain the information about elevations and channel/routing parameters
# - these files would be used to convert discharge to surface water elevation 
topographyNC = /projects/0/dfguu/users/edwin/data/floodplain_05arcmin_world_final/based_on_daily_runoff/topography_parameters_5_arcmin_october_2015.nc
channelNC    = /projects/0/dfguu/users/edwin/data/floodplain_05arcmin_world_final/based_on_daily_runoff/channel_parameters_5_arcmin_october_2015.nc
# - the manning coefficient used for converting discharge values to surface water elevation values
manningsN = 0.04
# - lake and reservoir parameters
waterBodyInputNC = PCRGLOBWB20/input5min/routing/reservoirs/waterBodiesFinal_version15Sept2013/maps/waterBodies5ArcMin.nc
# - option to ignore reservoirs (using only natural water bodies)
onlyNaturalWaterBodies = False

# assumption for the thickness/depth (m) of accessible groundwater (needed for coupling to PCR-GLOBWB)  
accessibleDepth = 1000.

# option to ignore negative capillary rise during MODFLOW simulation
ignoreCapRise = False

[modflowTransientInputOptions]

# the following is None for an online coupling between PCR-GLOBWB and MODFLOW
dischargeInputNC               = None
groundwaterRechargeInputNC     = None
groundwaterAbstractionInputNC  = None
channelStorageInputNC          = None

usingPredefinedInitialHead = True
# - if False, the initial groundwater head(s) will be based on the steady state simulation using the input defined in modflowSteadyStateInputOptions 
# - if True , the following initial conditions of the groundwater head will be based on the steady state simulation using the input defined in modflowSteadyStateInputOptions 
# - Note: For the online coupling PCR-GLOBWB-MODFLOW, we have to first define the initial conditions of groundwater head (usingPredefinedInitialHead = True)

# initial conditions for groundwater head (unit: m)
groundwaterHeadLayer1Ini = /scratch-shared/graafi/historic_human/spinup/modflow/transient/states/groundwaterHeadLayer1_1960-12-31.map
groundwaterHeadLayer2Ini = /scratch-shared/graafi/historic_human/spinup/modflow/transient/states/groundwaterHeadLayer2_1960-12-31.map

[routingOptions]

debugWaterBalance = True

lddMap      = PCRGLOBWB20/input5min/routing/lddsound_05min.map
cellAreaMap = PCRGLOBWB20/input5min/routing/cellsize05min.correct.map
gradient    = /projects/0/dfguu/users/edwin/data/floodplain_05arcmin_world_final/based_on_daily_runoff/map/channel_gradient.map

# manning coefficient
manningsN   = 0.04

# manning coefficient for floodplain
floodplainManningsN = 0.07

# routing method: (options are kinematicWave, simplifiedKinematicWave and accuTravelTime)
routingMethod = accuTravelTime
#~ routingMethod = kinematicWave

# Option for flood plain simulation
dynamicFloodPlain = True

# constant channel width (optional)
constantChannelWidth = /projects/0/dfguu/users/edwin/data/floodplain_05arcmin_world_final/based_on_daily_runoff/map/bankfull_width.map

# minimum channel width (optional)
minimumChannelWidth  = /projects/0/dfguu/users/edwin/data/floodplain_05arcmin_world_final/based_on_daily_runoff/map/bankfull_width.map

# constant channel depth 
constantChannelDepth = /projects/0/dfguu/users/edwin/data/floodplain_05arcmin_world_final/based_on_daily_runoff/map/bankfull_depth.map

#* for sensitivity analysis
depthFactor= 0.5

# files for relative elevation (above minimum dem) 
relativeElevationFiles  = /projects/0/dfguu/users/edwin/data/floodplain_05arcmin_world_final/based_on_daily_runoff/map/dzRel%04d.map
relativeElevationLevels = 0.0, 0.01, 0.05, 0.10, 0.20, 0.30, 0.40, 0.50, 0.60, 0.70, 0.80, 0.90, 1.00
# TODO: Define a netcdf file 

# Channel properties for flooding
bankfullCapacity = None
# - If None, it will be estimated from (bankfull) channel depth (m) and width (m) 

# lake and reservoir parameters
waterBodyInputNC = PCRGLOBWB20/input5min/routing/reservoirs/waterBodiesFinal_version15Sept2013/maps/waterBodies5ArcMin.nc
onlyNaturalWaterBodies = False

# composite crop factors for WaterBodies: 
cropCoefficientWaterNC = PCRGLOBWB20/input30min/routing/cropCoefficientForOpenWater.nc
minCropWaterKC         = 1.00

# number of days (timesteps) that have been performed for spinning up initial conditions in the routing module (i.e. channelStorageIni, avgDischargeLongIni, avgDischargeShortIni, etc.)
timestepsToAvgDischargeIni     =  /scratch-shared/graafi/historic_human_cond_0.1_riv0.5/from1994/global/states/timestepsToAvgDischarge_2002-12-31.map
# Note that: 
# - maximum number of days (timesteps) to calculate long term average flow values (default: 5 years = 5 * 365 days = 1825)
# - maximum number of days (timesteps) to calculate short term average values (default: 1 month = 1 * 30 days = 30)

# initial conditions:
waterBodyStorageIni            =  /scratch-shared/graafi/historic_human/spinup/global/states/waterBodyStorage_1960-12-31.map 
channelStorageIni              =  /scratch-shared/graafi/historic_human/spinup/global/states/channelStorage_1960-12-31.map
readAvlChannelStorageIni       =  /scratch-shared/graafi/historic_human/spinup/global/states/readAvlChannelStorage_1960-12-31.map
avgDischargeLongIni            =  /scratch-shared/graafi/historic_human/spinup/global/states/avgDischargeLong_1960-12-31.map
avgDischargeShortIni           =  /scratch-shared/graafi/historic_human/spinup/global/states/avgDischargeShort_1960-12-31.map
m2tDischargeLongIni            =  /scratch-shared/graafi/historic_human/spinup/global/states/m2tDischargeLong_1960-12-31.map
avgBaseflowLongIni             =  /scratch-shared/graafi/historic_human/spinup/global/states/avgBaseflowLong_1960-12-31.map
riverbedExchangeIni            =  /scratch-shared/graafi/historic_human/spinup/global/states/riverbedExchange_1960-12-31.map
#
#
# initial condition of sub-time step discharge (needed for estimating number of time steps in kinematic wave methods)
subDischargeIni                =  /scratch-shared/graafi/historic_human/spinup//global/states/subDischarge_1960-12-31.map
avgLakeReservoirInflowShortIni =  /scratch-shared/graafi/historic_human/spinup//global/states/avgLakeReservoirInflowShort_1960-12-31.map
avgLakeReservoirOutflowLongIni =  /scratch-shared/graafi/historic_human/spinup//global/states/avgLakeReservoirOutflowLong_1960-12-31.map


[reportingForModflowOptions]

# output files from modflow calculation that will be written in the disk in netcdf files:
outMonthEndNC = groundwaterHead,groundwaterHeadLayer1,groundwaterDepthLayer1,groundwaterHeadLayer2,groundwaterDepthLayer2,relativeGroundwaterHead,groundwaterVolumeEstimate,groundwaterThicknessEstimate
outAnnuaEndNC = None
# netcdf format and zlib setup
formatNetCDF = NETCDF4
zlib = True

# At this moment, we cannot report the following. 
outDailyTotNC = None
outMonthTotNC = None
outMonthAvgNC = None
outAnnuaTotNC = None
outAnnuaAvgNC = None

[reportingOptions]

# output files that will be written in the disk in netcdf files:
outDailyTotNC = None
outMonthTotNC = totalEvaporation,waterBodyActEvaporation,actualET,irrPaddyWaterWithdrawal,irrNonPaddyWaterWithdrawal,domesticWaterWithdrawal,industryWaterWithdrawal,livestockWaterWithdrawal,precipitation,gwRecharge,runoff,totalRunoff,baseflow,directRunoff,interflowTotal,totalGroundwaterAbstraction,desalinationAbstraction,surfaceWaterAbstraction,nonFossilGroundwaterAbstraction,fossilGroundwaterAbstraction,irrGrossDemand,nonIrrGrossDemand,totalGrossDemand,nonIrrWaterConsumption,nonIrrReturnFlow
outMonthAvgNC = discharge,dynamicFracWat,floodVolume,floodDepth,surfaceWaterStorage,interceptStor,snowFreeWater,snowCoverSWE,topWaterLayer,storUppTotal,storLowTotal,storGroundwater,storGroundwaterFossil,totalActiveStorageThickness,totalWaterStorageThickness,satDegUpp,satDegLow,channelStorage,waterBodyStorage,fractionTotalEvaporation,fracSurfaceWaterAllocation
outMonthEndNC = storGroundwater,storGroundwaterFossil,waterBodyStorage,channelStorage,totalWaterStorageThickness,totalActiveStorageThickness