[globalOptions]

# Set the pcrglobwb output directory in an absolute path.
outputDir    = /scratch-shared/edwinsut/pcrglobwb-modflow_online_gmd_paper_version_20181124/global_transient_natural_spin-up/begin_from_1958/

# Set the input directory map in an absolute path. 
# - The input forcing and parameter directories and files will be relative to this.
inputDir     = /projects/0/dfguu/data/hydroworld/pcrglobwb2_input_release/develop/pcrglobwb2_input/

# the following is needed for a parallel run
cloneAreas = Global
#
#~ # PART ONE
#~ cloneAreas = part_one
#~ # PART TWO
#~ cloneAreas = part_two

# Map of clone (must be provided in PCRaster maps)
# - Spatial resolution and coverage are based on this map:
cloneMap    = global_05min/cloneMaps/global_parallelization/clone_%3s.map
#~ cloneMap = global_05min/cloneMaps/global_parallelization/clone_M40.map
#~ cloneMap = global_05min/routing/ldd_and_cell_area/lddsound_05min.map
#~ cloneMap = /projects/0/dfguu/users/edwinhs/data/mekong_etc_clone/version_2018-10-22/final/clone_mekong.map
#~ cloneMap = /projects/0/dfguu/data/hydroworld/others/Java/Java05min.clone.map
#~ cloneMap = /scratch-shared/edwinsut/making_continent_maps/landmask_test_asia_africa.map

# The area/landmask of interest:
# If None, area/landmask is limited for cells with ldd value. 
landmask    = global_05min/cloneMaps/global_parallelization/mask_%3s.map
#~ landmask = None
#~ landmask = /projects/0/dfguu/users/edwinhs/data/mekong_etc_clone/version_2018-10-22/final/mask_mekong_global.map
#~ landmask = /scratch-shared/edwinsut/making_continent_maps/landmask_test_asia_africa.map

# netcdf attributes for output files:
institution  = Department of Physical Geography, Utrecht University
title        = PCR-GLOBWB-MODFLOW online coupling
description  = by Edwin H. Sutanudjaja (contact: e.h.sutanudjaja@uu.nl) 

startTime = 1958-01-01
endTime   = 2015-12-31
# Format: YYYY-MM-DD ; The current model runs on the daily time step.

#~ modflowOfflineCoupling = True

#~ # temporary modflow folder (optional):
#~ tmp_modflow_dir = /dev/shm/edwin/pcrglobwb_modflow_global/

# spinning up options:
maxSpinUpsInYears = 0
minConvForSoilSto = 0.0
minConvForGwatSto = 0.0
minConvForChanSto = 0.0
minConvForTotlSto = 0.0

#~ # option/directory for saving the spin-up directory 
#~ spinUpOutputDir = True

# an optional option to include the merging process (needed for parallel runs with/without modflow) 
# - for parallel runs with spin-ups, we should set this to False
#~ with_merging = False
with_merging    = True

[globalMergingAndModflowOptions]

# the global clone map
cloneMap = global_05min/routing/ldd_and_cell_area/lddsound_05min.map

# The area/landmask of interest:
landmask = None
# If None, area/landmask is limited for cells with ldd value. 

# option to indicate if an online coupling between PCR-GLOBWB and MODFLOW models used
online_coupling_between_pcrglobwb_and_modflow = True

#~ # temporary modflow folder (optional):
#~ tmp_modflow_dir = /dev/shm/edwin/pcrglobwb_modflow_global/

[prefactorOptions]

linear_multiplier_for_refPotET         = 1.0
linear_multiplier_for_degreeDayFactor  = 1.0
linear_multiplier_for_minSoilDepthFrac = 1.0
log_10_multiplier_for_kSat             = 0.0
linear_multiplier_for_storCap          = 1.0
log_10_multiplier_for_recessionCoeff   = 0.0



[meteoOptions]

# Set the forcing temperature and precipitation files (relative to inputDir)
precipitationNC = /projects/0/dfguu/data/hydroworld/forcing/CRU-TS3.2/merged_cru_1958-2015/daily_precipitation_cruts321_era-40_era-interim_1958-2010_cruts324_era-interim_2011_to_2015.nc
temperatureNC   = /projects/0/dfguu/data/hydroworld/forcing/CRU-TS3.2/merged_cru_1958-2015/daily_temperature_cruts321_era-40_era-interim_1958-2010_cruts324_era-interim_2011_to_2015.nc

# Method to calculate referencePotETP (reference potential evaporation+transpiration)
# options are "Hamon" and "Input" ; If "Input", the netcdf input file must be given:
referenceETPotMethod = Input
refETPotFileNC = /projects/0/dfguu/data/hydroworld/forcing/CRU-TS3.2/merged_cru_1958-2015/daily_referencePotET_cruts321_era-40_era-interim_1958-2010_cruts324_era-interim_2011_to_2015.nc



[meteoDownscalingOptions]
# This section is for a 5 arcmin run, for downscaling meteorological forcing at 30 arcmin to 5 arcmin.  
                                                                                                                                        
downscalePrecipitation  = False                                                                                                                                   
downscaleTemperature    = True                                                                                                                                   
downscaleReferenceETPot = False                                                                                                                                   
   
# downscaling (based on the digital elevation model):                                                                                                            
# The downscaling will be performed by providing the "cellIds" (meteoDownscaleIds) of lower resolution cells.                                                    
meteoDownscaleIds = global_05min/meteo/downscaling_from_30min/uniqueIds_30min.map                                                                      
highResolutionDEM = global_05min/meteo/downscaling_from_30min/gtopo05min.map                                                                           
   
# lapse rates:                                                                                                                                                   
temperLapseRateNC = global_05min/meteo/downscaling_from_30min/temperature_slope.nc                                                                     
precipLapseRateNC = global_05min/meteo/downscaling_from_30min/precipitation_slope.nc                                                                   
                                                                                                                                                                 
# downscaling criteria (TODO: remove these):                                                                                                                     
temperatCorrelNC  = global_05min/meteo/downscaling_from_30min/temperature_correl.nc                                                                     
precipitCorrelNC  = global_05min/meteo/downscaling_from_30min/precipitation_correl.nc                                                                   
                                                                                                                                                                 
# windows length (unit: arc-degree) for smoothing/averaging forcing data (not recommended):                                                                      
smoothingWindowsLength = 0


[landSurfaceOptions]
debugWaterBalance = True

numberOfUpperSoilLayers = 2

# soil and parameters
# - they are used for all land cover types, unless they are are defined in certain land cover type options 
#   (e.g. different/various soil types for agriculture areas)  
topographyNC     = global_05min/landSurface/topography/topography_parameters_5_arcmin_october_2015.nc
soilPropertiesNC = global_05min/landSurface/soil/soilProperties5ArcMin.nc

includeIrrigation = False

limitAbstraction = True

# output files that will be written in the disk in netcdf files:
outDailyTotNC = openWaterEvap
outMonthTotNC = None
outMonthAvgNC = None
outMonthEndNC = None
outAnnuaTotNC = None
outAnnuaAvgNC = None
outAnnuaEndNC = None


[forestOptions]

name = forest
debugWaterBalance = True

# snow module properties
snowModuleType      =  Simple
freezingT           =  0.0
degreeDayFactor     =  0.0025
snowWaterHoldingCap =  0.1
refreezingCoeff     =  0.05

# other paramater values
minTopWaterLayer  = 0.0
minCropKC         = 0.2

cropCoefficientNC = global_05min/landSurface/landCover/naturalTall/cropCoefficientForest.nc
interceptCapNC    = global_05min/landSurface/landCover/naturalTall/interceptCapInputForest.nc
coverFractionNC   = global_05min/landSurface/landCover/naturalTall/coverFractionInputForest.nc

landCoverMapsNC   = None
# If NC file is not provided, we have to provide the following pcraster maps:
fracVegCover      = global_05min/landSurface/landCover/naturalTall/vegf_tall.map
minSoilDepthFrac  = global_30min/landSurface/landCover/naturalTall/minf_tall_permafrost.map
maxSoilDepthFrac  = global_30min/landSurface/landCover/naturalTall/maxf_tall.map
rootFraction1     = global_05min/landSurface/landCover/naturalTall/rfrac1_tall.map
rootFraction2     = global_05min/landSurface/landCover/naturalTall/rfrac2_tall.map	
maxRootDepth      = 1.0
# Note: The maxRootDepth is not used for non irrigated land cover type. 	
#
# Parameters for the Arno's scheme:
arnoBeta = None
# If arnoBeta is defined, the soil water capacity distribution is based on this.
# If arnoBeta is NOT defined, maxSoilDepthFrac must be defined such that arnoBeta will be calculated based on maxSoilDepthFrac and minSoilDepthFrac.

# initial conditions:
interceptStorIni = /scratch-shared/edwinsut/pcrglobwb2_gmd_paper_natural_analysis/output_gmd_natural/states//interceptStor_forest_2010-12-31.map
snowCoverSWEIni  = /scratch-shared/edwinsut/pcrglobwb2_gmd_paper_natural_analysis/output_gmd_natural/states//snowCoverSWE_forest_2010-12-31.map
snowFreeWaterIni = /scratch-shared/edwinsut/pcrglobwb2_gmd_paper_natural_analysis/output_gmd_natural/states//snowFreeWater_forest_2010-12-31.map
topWaterLayerIni = /scratch-shared/edwinsut/pcrglobwb2_gmd_paper_natural_analysis/output_gmd_natural/states//topWaterLayer_forest_2010-12-31.map
storUppIni       = /scratch-shared/edwinsut/pcrglobwb2_gmd_paper_natural_analysis/output_gmd_natural/states//storUpp_forest_2010-12-31.map
storLowIni       = /scratch-shared/edwinsut/pcrglobwb2_gmd_paper_natural_analysis/output_gmd_natural/states//storLow_forest_2010-12-31.map
interflowIni     = /scratch-shared/edwinsut/pcrglobwb2_gmd_paper_natural_analysis/output_gmd_natural/states//interflow_forest_2010-12-31.map


[grasslandOptions]

name = grassland
debugWaterBalance = True

# snow module properties
snowModuleType      =  Simple
freezingT           =  0.0
degreeDayFactor     =  0.0025
snowWaterHoldingCap =  0.1
refreezingCoeff     =  0.05

# other paramater values
minTopWaterLayer = 0.0
minCropKC        = 0.2

cropCoefficientNC = global_05min/landSurface/landCover/naturalShort/cropCoefficientGrassland.nc
interceptCapNC    = global_05min/landSurface/landCover/naturalShort/interceptCapInputGrassland.nc
coverFractionNC   = global_05min/landSurface/landCover/naturalShort/coverFractionInputGrassland.nc

landCoverMapsNC   = None
# If NC file is not provided, we have to provide the following values:
fracVegCover      = global_05min/landSurface/landCover/naturalShort/vegf_short.map
minSoilDepthFrac  = global_30min/landSurface/landCover/naturalShort/minf_short_permafrost.map
maxSoilDepthFrac  = global_30min/landSurface/landCover/naturalShort/maxf_short.map
rootFraction1     = global_05min/landSurface/landCover/naturalShort/rfrac1_short.map
rootFraction2     = global_05min/landSurface/landCover/naturalShort/rfrac2_short.map	
maxRootDepth      = 0.5
# Note: The maxRootDepth is not used for non irrigated land cover type. 	
#
# Parameters for the Arno's scheme:
arnoBeta = None
# If arnoBeta is defined, the soil water capacity distribution is based on this.
# If arnoBeta is NOT defined, maxSoilDepthFrac must be defined such that arnoBeta will be calculated based on maxSoilDepthFrac and minSoilDepthFrac.

# initial conditions:
interceptStorIni = /scratch-shared/edwinsut/pcrglobwb2_gmd_paper_natural_analysis/output_gmd_natural/states//interceptStor_grassland_2010-12-31.map
snowCoverSWEIni  = /scratch-shared/edwinsut/pcrglobwb2_gmd_paper_natural_analysis/output_gmd_natural/states//snowCoverSWE_grassland_2010-12-31.map
snowFreeWaterIni = /scratch-shared/edwinsut/pcrglobwb2_gmd_paper_natural_analysis/output_gmd_natural/states//snowFreeWater_grassland_2010-12-31.map
topWaterLayerIni = /scratch-shared/edwinsut/pcrglobwb2_gmd_paper_natural_analysis/output_gmd_natural/states//topWaterLayer_grassland_2010-12-31.map
storUppIni       = /scratch-shared/edwinsut/pcrglobwb2_gmd_paper_natural_analysis/output_gmd_natural/states//storUpp_grassland_2010-12-31.map
storLowIni       = /scratch-shared/edwinsut/pcrglobwb2_gmd_paper_natural_analysis/output_gmd_natural/states//storLow_grassland_2010-12-31.map
interflowIni     = /scratch-shared/edwinsut/pcrglobwb2_gmd_paper_natural_analysis/output_gmd_natural/states//interflow_grassland_2010-12-31.map


[groundwaterOptions]

debugWaterBalance = True

# basic groundwater properties
groundwaterPropertiesNC = global_05min/groundwater/properties/groundwaterProperties5ArcMin.nc
# The file will containspecificYield (m3.m-3), kSatAquifer, recessionCoeff (day-1)
#
# - minimum value for groundwater recession coefficient (day-1) 
minRecessionCoeff = 1.0e-4

# some options for constraining groundwater abstraction
limitFossilGroundWaterAbstraction      = True
estimateOfRenewableGroundwaterCapacity = 0.0

# river bed properties - optional
# - river bed conductivity (m.day-1) ; the default value is taken from kSatAquifer
riverBedConductivity = Default
# - river bed thickness (m) ; the default value is 0.1 m
riverBedThickness    = 0.1
# - minimum river bed resistance (day) ; the default value is 1 day
minimumBedResistance = 1.0

# total groundwater thickness (m)
estimateOfTotalGroundwaterThickness    = global_05min/groundwater/aquifer_thickness_estimate/thickness_05min.map

# minimum and maximum total groundwater thickness 
minimumTotalGroundwaterThickness       = 100.
maximumTotalGroundwaterThickness       = 1000.

# assumption for the minimum transmissivity value (unit: m2/day) that can be extracted (via capillary rise and/or groundwater abstraction) - optional
# - if None, abstraction and/or capillary rise can always occur everywhere and unlimited
minimumTransmissivityForProductiveAquifer = 50.
# - For a run with MODFLOW (especially an offline coupling run), abstraction can still occur for these cells. Yet, the abstraction will not be to the lowermost layer only, but it will be distribued to both layers based on transmissivities.

# initial conditions:
storGroundwaterIni                        = /scratch-shared/edwinsut/pcrglobwb-modflow_offline_with_gmd_paper/global/steady-state/steady-state_only/maps/storGroundwater_1958-01-01.ini.map
storGroundwaterFossilIni                  = 0.0
#
# additional initial conditions for MODFLOW run 
relativeGroundwaterHeadIni                = /scratch-shared/edwinsut/pcrglobwb-modflow_offline_with_gmd_paper/global/steady-state/steady-state_only/maps/relativeGroundwaterHead_1958-01-01.ini.map
baseflowIni                               = /scratch-shared/edwinsut/pcrglobwb-modflow_offline_with_gmd_paper/global/steady-state/steady-state_only/maps/baseflow_1958-01-01.ini.map
#
# initial conditions for pumping behaviors
avgNonFossilGroundwaterAllocationLongIni  = /scratch-shared/edwinsut/pcrglobwb2_gmd_paper_natural_analysis/output_gmd_natural/states//avgNonFossilGroundwaterAllocationLong_2010-12-31.map
avgNonFossilGroundwaterAllocationShortIni = /scratch-shared/edwinsut/pcrglobwb2_gmd_paper_natural_analysis/output_gmd_natural/states//avgNonFossilGroundwaterAllocationShort_2010-12-31.map
avgTotalGroundwaterAbstractionIni         = /scratch-shared/edwinsut/pcrglobwb2_gmd_paper_natural_analysis/output_gmd_natural/states//avgTotalGroundwaterAbstraction_2010-12-31.map
avgTotalGroundwaterAllocationLongIni      = /scratch-shared/edwinsut/pcrglobwb2_gmd_paper_natural_analysis/output_gmd_natural/states//avgTotalGroundwaterAllocationLong_2010-12-31.map
avgTotalGroundwaterAllocationShortIni     = /scratch-shared/edwinsut/pcrglobwb2_gmd_paper_natural_analysis/output_gmd_natural/states//avgTotalGroundwaterAllocationShort_2010-12-31.map

[modflowParameterOptions]

# number of modflow layers:
number_of_layers = 2

# Total thickness of groundwater (from both layers) is defined in the section "groundwaterOptions".

# The default values for aquifer properties (i.e. conductivities and storage coefficients) are defined in the field "groundwaterPropertiesNC" of the section "groundwaterOptions". Yet, these default values can be overwritten by setting the following information. 

# confining layer (deklaag) properties (thickness in meter, conductivity in m/day, resistance in day) 
#
# - confining layer thickness
usePreDefinedConfiningLayer               = True
confiningLayerThickness                   = /projects/0/dfguu/users/edwin/data/inge_confining_layer_parameters/confining_layer_thickness_edwin.map
# * TODO: Shall we remove the "usePreDefinedConfiningLayer" option. It seems that this must always be True.  
#
# - confining layer horizontal conductivity (m/day)
confiningLayerHorizontalConductivity      = Default
# * If Default (or not defined), the default values from the field of "groundwaterPropertiesNC" of the section "groundwaterOptions" will be used. 
#
# - confining layer vertical conductivity (m/day)
confiningLayerVerticalConductivity        = Default
maximumConfiningLayerVerticalConductivity = 0.0008
# * PS: 0.8 mm/day based on de Graaf et al., 2017
#
# - resistance (day) 
# * By default, the resistance (1/VCONT) between two layers equals to confiningLayerThickness (m) / confiningLayerVerticalConductivity (m.day-1)
# * Yet, we can limit this field with the following the maximum value (day):
maximumConfiningLayerResistance           = 30000.
# 
# - primary storage coefficient (dimensionless)
confiningLayerPrimaryStorageCoefficient   = Default

# aquifer layer properties
# 
# - aquifer layer horizontal conductivity (m/day)
aquiferLayerHorizontalConductivity        = Default
# * If Default (or not defined), the default values from the field of "groundwaterPropertiesNC" of the section "groundwaterOptions" will be used. 
# 
# - primary storage coefficient (dimensionless) for confined aquifer only
#~ aquiferLayerPrimaryStorageCoefficient  = Default
# * If Default (or not defined), the default specific yield values from the field of "groundwaterPropertiesNC" of the section "groundwaterOptions" will be used. 
aquiferLayerPrimaryStorageCoefficient     = 0.003
# * PS: 0.003 based on de Graaf et al., 2017
# * The aquiferLayerPrimaryStorageCoefficient value will be set to the confined aquifer cells only. Cells without confining layer have their aquiferLayerPrimaryStorageCoefficient values equal to the specific yield values from the field of "groundwaterPropertiesNC".
#
# - secondary storage coefficient (dimensionless)
#~ aquiferLayerSecondaryStorageCoefficient = None
aquiferLayerSecondaryStorageCoefficient    = Default
# If aquiferLayerSecondaryStorageCoefficient is defined (or not equal to None or False), we will use the layer type (LAYCON) 2. Note that for this layer type, storage coefficient values may alter from their primary to the secondary ones (and vice versa), but transmissivities constantly based on the layer thickness. 
# 
# - PS: The thickness of aquifer layer is totalGroundwaterThickness - confiningLayerThickness


# general rule for minimum and maximum values for transmissivities (unit: m/day)
minimumTransmissivity = 10.0
maximumTransmissivity = None

# elevation/topographical parameters, e.g. average DEM and minimum DEM within a cell
topographyNC = /projects/0/dfguu/users/edwin/data/floodplain_05arcmin_world_final/based_on_daily_runoff/topography_parameters_5_arcmin_october_2015.nc
# * TODO: Use the HydroSHEDS DEM. 

# channel/routing parameters (these input values/files would be used to convert discharge to surface water elevation, based on Manning's equation) 
channelNC    = /projects/0/dfguu/users/edwin/data/floodplain_05arcmin_world_final/based_on_daily_runoff/channel_parameters_5_arcmin_october_2015.nc
# - the manning coefficient used for converting discharge values to surface water elevation values
manningsN = 0.04
#
# - minimum channel gradient (m.m-1, optional) - this is recommended to avoid too high surface water level
minimumChannelGradient = 0.00005
# - minimum channel width (m, optional) - this is recommended, not only to avoid too high surface water level, but also to set minimum river bed conductance 
minimumChannelWidth    = 5.0 

# option to exclude river infiltration
minimumWidthOfRiversWithInfiltration = 10.0

# drainage direction map
lddMap      = global_05min/routing/ldd_and_cell_area/lddsound_05min.map

# cell area (unit: m2)
cellAreaMap = global_05min/routing/ldd_and_cell_area/cellsize05min.correct.map

# lakes and reservoir parameters
onlyNaturalWaterBodies = False
#~ waterBodyInputNC    = global_05min/routing/surface_water_bodies/waterBodies5ArcMin.nc
waterBodyInputNC       = global_05min/routing/surface_water_bodies/certain_year_only/waterBodies5ArcMin_1958.nc
# Only reservoirs built in 1958 and before are considered in the natural simulation. 

# assumption for the thickness/depth (m) of accessible groundwater (needed only for online coupling to PCR-GLOBWB)  
accessibleDepth = 1000.

# option to ignore negative capillary rise during MODFLOW simulation
ignoreCapRise = False


#~ # pre-factors to adjust several values:
#~ linear_multiplier_for_storage_coefficients    = 1.0
#~ log_10_multiplier_for_transmissivities        = 0.0
#~ linear_multiplier_for_groundwater_recharge    = 1.0
#~ linear_multiplier_for_groundwater_abstraction = 1.0
#~ 
#~ # pre-factor to include aquitards
#~ log_10_multiplier_for_resistance_values       = 0.0
#~ log_10_multiplier_for_resistance_values       = 0.69897


# some parameters for the PCG solver (optional)
#~ DAMP              = 1.00,0.75
DAMP                 = 0.75
#~ DAMP_steady_state = 0.75,0.60
DAMP_steady_state    = 0.60
#~ # - for steady-state model, please do not use too many RCLOSE
#~ RCLOSE = 100000.0


#~ #######################################################################################################################################################
#~ [modflowSteadyStateInputOptions]
#~ 
#~ # The following input maps used for the steady state run 
#~ # - average discharge (unit: m3/s)
#~ avgDischargeInputMap              = /scratch-shared/edwinsut/pcrglobwb2_gmd_paper_natural_analysis/output_gmd_natural/average_1960-2010/average_discharge_m3_per_second_1960_to_2010.map
#~ 
#~ # - average groundwater recharge (unit: m/day)
#~ avgGroundwaterRechargeInputMap    = /scratch-shared/edwinsut/pcrglobwb2_gmd_paper_natural_analysis/output_gmd_natural/average_1960-2010/average_gwRecharge_m_per_day_1960_to_2010.map
#~ 
#~ # - average groundwater abstraction (unit: m/day)
#~ avgGroundwaterAbstractionInputMap = 0.0
#~ 
#~ # - average channel storage (unit: m3) - optional
#~ avgChannelStorageInputMap         = None
#~ 
#~ # initial estimate for groundwater head (unit: m)
#~ usingInitialHeadEstimate = False
#~ groundwaterHeadLayer1Estimate = None
#~ groundwaterHeadLayer2Estimate = None
#~ 
#~ # option to ignore negative capillary rise during a steady state simulation
#~ ignoreCapRiseSteadyState = True
#~ 
#~ # option to introduce extra spin-up years (using transient simulation with constant input with 365 * 10 day stress period)
#~ extraSpinUpYearsWith10YearStressPeriod = 7
#~ # - a global simulation takes more than 6 hour calculation time per 10 years (with semi-weekly time steps)
#~ 
#~ # option to introduce extra spin-up years (using transient simulation with constant input with 365 day stress period)
#~ extraSpinUpYearsWith365DayStressPeriod = 27
#~ # - a global simulation takes about 35 minute calculation time per year
#~ 
#~ # option to introduce extra spin-up years (using transient simulation with constant input with 30 day stress period)
#~ extraSpinUpYearsWith30DayStressPeriod  = 3
#~ # - a global simulation takes about 20 minute calculation time per month
#~ #######################################################################################################################################################


[modflowTransientInputOptions]

# the following is None for an online coupling between PCR-GLOBWB and MODFLOW
dischargeInputNC               = None
groundwaterRechargeInputNC     = None
groundwaterAbstractionInputNC  = None
channelStorageInputNC          = None

usingPredefinedInitialHead = True
# - if False, the initial groundwater head(s) will be based on the steady state simulation using the input defined in modflowSteadyStateInputOptions 
# - if True , the following initial conditions of the groundwater head will be based on the steady state simulation using the input defined in modflowSteadyStateInputOptions 
# - Note: For the online coupling PCR-GLOBWB-MODFLOW, we have to first define the initial conditions of groundwater head (usingPredefinedInitialHead = True)

# initial conditions for groundwater head (unit: m)
groundwaterHeadLayer1Ini = /scratch-shared/edwinsut/pcrglobwb-modflow_offline_with_gmd_paper/global/steady-state/steady-state_only/states/groundwaterHeadLayer1_1958-01-01.ini.map
groundwaterHeadLayer2Ini = /scratch-shared/edwinsut/pcrglobwb-modflow_offline_with_gmd_paper/global/steady-state/steady-state_only/states/groundwaterHeadLayer2_1958-01-01.ini.map


[routingOptions]

debugWaterBalance = True

# drainage direction map
lddMap      = global_05min/routing/ldd_and_cell_area/lddsound_05min.map

# cell area (unit: m2)
cellAreaMap = global_05min/routing/ldd_and_cell_area/cellsize05min.correct.map

# routing method:
routingMethod = accuTravelTime

# manning coefficient
manningsN   = 0.04

# Option for flood plain simulation
dynamicFloodPlain = True

# manning coefficient for floodplain
floodplainManningsN = 0.07


# channel gradient
gradient             = global_05min/routing/channel_properties/channel_gradient.map

# constant channel depth 
constantChannelDepth = global_05min/routing/channel_properties/bankfull_depth.map

# constant channel width (optional)
constantChannelWidth = global_05min/routing/channel_properties/bankfull_width.map

# minimum channel width (optional)
minimumChannelWidth  = global_05min/routing/channel_properties/bankfull_width.map

# channel properties for flooding
bankfullCapacity     = None
# - If None, it will be estimated from (bankfull) channel depth (m) and width (m) 


# files for relative elevation (above minimum dem) 
relativeElevationFiles  = global_05min/routing/channel_properties/dzRel%04d.map
relativeElevationLevels = 0.0, 0.01, 0.05, 0.10, 0.20, 0.30, 0.40, 0.50, 0.60, 0.70, 0.80, 0.90, 1.00


# composite crop factors for WaterBodies: 
cropCoefficientWaterNC = global_30min/routing/kc_surface_water/cropCoefficientForOpenWater.nc
minCropWaterKC         = 1.00


# lakes and reservoir parameters
onlyNaturalWaterBodies = False
#~ waterBodyInputNC    = global_05min/routing/surface_water_bodies/waterBodies5ArcMin.nc
waterBodyInputNC       = global_05min/routing/surface_water_bodies/certain_year_only/waterBodies5ArcMin_1958.nc
# Only reservoirs built in 1958 and before are considered in the natural simulation. 


# initial conditions:
#
# number of days (timesteps) that have been performed for spinning up initial conditions in the routing module (i.e. channelStorageIni, avgDischargeLongIni, avgDischargeShortIni, etc.)
timestepsToAvgDischargeIni     = /scratch-shared/edwinsut/pcrglobwb2_gmd_paper_natural_analysis/output_gmd_natural/states/timestepsToAvgDischarge_2010-12-31.map
# Note that: 
# - maximum number of days (timesteps) to calculate long term average flow values (default: 5 years = 5 * 365 days = 1825)
# - maximum number of days (timesteps) to calculate short term average values (default: 1 month = 1 * 30 days = 30)
#
waterBodyStorageIni            = /scratch-shared/edwinsut/pcrglobwb2_gmd_paper_natural_analysis/output_gmd_natural/states/waterBodyStorage_2010-12-31.map
channelStorageIni              = /scratch-shared/edwinsut/pcrglobwb2_gmd_paper_natural_analysis/output_gmd_natural/states/channelStorage_2010-12-31.map
readAvlChannelStorageIni       = /scratch-shared/edwinsut/pcrglobwb2_gmd_paper_natural_analysis/output_gmd_natural/states/readAvlChannelStorage_2010-12-31.map
avgDischargeLongIni            = /scratch-shared/edwinsut/pcrglobwb2_gmd_paper_natural_analysis/output_gmd_natural/states/avgDischargeLong_2010-12-31.map
avgDischargeShortIni           = /scratch-shared/edwinsut/pcrglobwb2_gmd_paper_natural_analysis/output_gmd_natural/states/avgDischargeShort_2010-12-31.map
m2tDischargeLongIni            = /scratch-shared/edwinsut/pcrglobwb2_gmd_paper_natural_analysis/output_gmd_natural/states/m2tDischargeLong_2010-12-31.map
avgBaseflowLongIni             = /scratch-shared/edwinsut/pcrglobwb2_gmd_paper_natural_analysis/output_gmd_natural/states/avgBaseflowLong_2010-12-31.map
riverbedExchangeIni            = /scratch-shared/edwinsut/pcrglobwb2_gmd_paper_natural_analysis/output_gmd_natural/states/riverbedExchange_2010-12-31.map
#
# initial condition of sub-time step discharge (needed for estimating number of time steps in kinematic wave methods)
subDischargeIni                = /scratch-shared/edwinsut/pcrglobwb2_gmd_paper_natural_analysis/output_gmd_natural/states/subDischarge_2010-12-31.map
#
avgLakeReservoirInflowShortIni = /scratch-shared/edwinsut/pcrglobwb2_gmd_paper_natural_analysis/output_gmd_natural/states/avgLakeReservoirInflowShort_2010-12-31.map
avgLakeReservoirOutflowLongIni = /scratch-shared/edwinsut/pcrglobwb2_gmd_paper_natural_analysis/output_gmd_natural/states/avgLakeReservoirOutflowLong_2010-12-31.map


[reportingForModflowOptions]

# output files from modflow calculation that will be written in the disk in netcdf files: