[globalOptions]

# Set the pcrglobwb output directory in an absolute path.
#~ outputDir = /scratch/depfg/sutan101/test_uly_dummy/
#~ outputDir = /scratch/ms/copext/cyes/test_parallel/test_with_jobs_complete_54_clones_develop/
#~ outputDir = /scratch/ms/copext/cyes/develop/
#~ outputDir = /scratch/ms/copext/cyes/test_parallel/test_with_jobs_complete_54_clones/
#~ outputDir = /scratch/ms/copext/cyes/develop_parallel/
#~ outputDir = /scratch/mo/nest/ulysses/data/edwin/test/
#~ outputDir = /scratch/ms/copext/cyes/pcrglobwb_output_version_2020-08-12/
outputDir    = MAIN_OUTPUT_DIR

# Set the input directory map in an absolute path. 
# - The input forcing and parameter directories and files will be relative to this.
#~ inputDir = /scratch/depfg/sutan101/data/pcrglobwb2_input_release/version_2019_11_beta_extended/pcrglobwb2_input/
#~ inputDir =  https://opendap.4tu.nl/thredds/dodsC/data2/pcrglobwb/version_2019_11_beta/pcrglobwb2_input/
inputDir    = /scratch/mo/nest/ulysses/data/edwin/pcrglobwb/pcrglobwb2_input/ 

# Map of clone (must be provided in PCRaster maps)
# - Spatial resolution and coverage are based on this map:
#~ cloneMap = /scratch/mo/nest/ulysses/data/edwin/clone_maps/version_2020-07-21/clone_mask_basin_%s.map
#~ cloneMap = /scratch/mo/nest/ulysses/data/edwin/clone_maps/version_2020-08-04/pcraster_maps/clonemap_mask_%s.map
cloneMap    = /scratch/mo/nest/ulysses/data/edwin/clone_maps/version_2020-08-06_with-quick-fix-for-48-and-50/pcraster_maps/clonemap_mask_%s.map

#~ (pcrglobwb_python3) cyes@ccb-login4:/scratch/mo/nest/ulysses/data/edwin/clone_maps/version_2020-08-04/pcraster_maps> ls -lah *54*
#~ -rw-rw-r--+ 1 cyes copext 152K Aug  4 12:45 clonemap_mask_54.map
#~ -rw-rw-r--+ 1 cyes copext  20M Aug  4 12:45 global_landmask_river_and_land_mask_54.map
#~ -rw-rw-r--+ 1 cyes copext 152K Aug  4 12:45 landmask_land_mask_54.map
#~ -rw-rw-r--+ 1 cyes copext 152K Aug  4 12:45 landmask_river_and_land_mask_54.map
 
# The area/landmask of interest:
#~ landmask = None
#~ landmask = /scratch/mo/nest/ulysses/data/edwin/clone_maps/version_2020-08-04/pcraster_maps/landmask_river_and_land_mask_%s.map
landmask    = /scratch/mo/nest/ulysses/data/edwin/clone_maps/version_2020-08-06_with-quick-fix-for-48-and-50/pcraster_maps/landmask_river_and_land_mask_%s.map

# netcdf attributes for output files:
institution = Department of Physical Geography, Utrecht University
title       = PCR-GLOBWB 2 output (not coupled to MODFLOW), development version for Ulysses
description = by Edwin H. Sutanudjaja (contact: e.h.sutanudjaja@uu.nl)


#~ startTime = 1982-01-01
#~ endTime   = 1982-01-31
#~ # Format: YYYY-MM-DD ; The model runs on daily time step.

startTime = 1981-01-01
endTime   = 2019-12-31
# Format: YYYY-MM-DD ; The model runs on daily time step.

#~ startTime = STARTING_DATE
#~ endTime   = END_DATE
#~ # Format: YYYY-MM-DD ; The model runs on daily time step.


# spinning up options:
maxSpinUpsInYears = 10
minConvForSoilSto = 0.0
minConvForGwatSto = 0.0
minConvForChanSto = 0.0
minConvForTotlSto = 0.0

#~ # spinning up options:
#~ maxSpinUpsInYears = 10
#~ minConvForSoilSto = 0.0
#~ minConvForGwatSto = 0.0
#~ minConvForChanSto = 0.0
#~ minConvForTotlSto = 0.0

#~ # option/directory for saving the spin-up directory 
#~ spinUpOutputDir = True



#~ # option for merging netcdf and states from clone runs
#~ with_merging = False


#~ [prefactorOptions]
#~ 
#~ linear_multiplier_for_refPotET         = 1.0
#~ linear_multiplier_for_degreeDayFactor  = 1.0
#~ linear_multiplier_for_minSoilDepthFrac = 1.0
#~ log_10_multiplier_for_kSat             = 0.0
#~ linear_multiplier_for_storCap          = 1.0
#~ log_10_multiplier_for_recessionCoeff   = 0.0
#~ multiplier_for_manningsN               = 1.0
#~ storGroundwaterIni_file                = Default


[meteoOptions]


# Method to calculate referencePotETP (reference potential evaporation+transpiration)
# options are "Hamon" and "Input" ; If "Input", the netcdf input file must be given:
referenceETPotMethod = Input

# for Ulysses
precipitation_file_per_month  = True
temperature_file_per_month    = True
refETPotFileNC_file_per_month = True
#~ 
precipitationNC    = /scratch/mo/nest/ulysses/data/meteo/era5land/%04i/%02i/precipitation_daily_%02i_%04i.nc
temperatureNC      = /scratch/mo/nest/ulysses/data/meteo/era5land/%04i/%02i/tavg_%02i_%04i.nc
refETPotFileNC     = /scratch/mo/nest/ulysses/data/meteo/era5land/%04i/%02i/pet_%02i_%04i.nc

#~ precipitationNC    = /scratch/mo/nest/ulysses/data/meteo/era5land/1982/01/precipitation_daily_01_1981.nc
#~ temperatureNC      = /scratch/mo/nest/ulysses/data/meteo/era5land/1982/01/tavg_01_1981.nc
#~ refETPotFileNC     = /scratch/mo/nest/ulysses/data/meteo/era5land/1982/01/pet_01_1981.nc

#~ precipitationNC    = PRECIPITATION_FORCING_FILE
#~ temperatureNC      = TEMPERATURE_FORCING_FILE
#~ refETPotFileNC     = REF_POT_ET_FORCING_FILE


# variable names in the forcing files (optional)
precipitationVariableName    = pre
temperatureVariableName      = tavg
referenceEPotVariableName    = pet

# conversion constants and factors to correct forcing values (optional) so that the units are in m.day-1 and degree Celcius                                                                                                           
precipitationConstant    = 0.0
precipitationFactor      = 0.001
temperatureConstant      = 0.0
temperatureFactor        = 1.0
referenceEPotConstant    = 0.0
referenceEPotFactor      = 0.001

# option to ignore small values of precipitation (default is False)
rounddownPrecipitation   = False


[landSurfaceOptions]

debugWaterBalance = True

numberOfUpperSoilLayers = 2

# topography parameters
# - they are used for all land cover types, unless they are are defined in certain land cover type options 
#   (e.g. different/various soil types for agriculture areas)  
topographyNC        = /scratch/mo/nest/ulysses/data/edwin/floodplain_06min/global_ulysses_version_202007XX_not_corrected_to_water_bodies/pcrglobwb_topography_parameters_06min_july_2020.nc

# soil parameters
# - they are used for all land cover types, unless they are are defined in certain land cover type options 
#   (e.g. different/various soil types for agriculture areas)  
soilPropertiesNC    = /scratch/mo/nest/ulysses/data/edwin/soilgrids_from_rens_2020-06-23/output/soilgrids_properties_ulysses_6arcmin.nc4

#~ # option to skip extrapolation
#~ noParameterExtrapolation = True

# using a dummy land cover
landCoverTypes = forest,grassland,crop,urban
noLandCoverFractionCorrection = False



[forestOptions]
# we still have to spin up the model for initial conditions

name = forest
debugWaterBalance = True

# snow module properties
snowModuleType      =  Simple
freezingT           =  0.0
degreeDayFactor     =  0.0025
snowWaterHoldingCap =  0.1
refreezingCoeff     =  0.05

# other paramater values
minTopWaterLayer  = 0.0
minCropKC         = 0.2

cropCoefficientNC = /scratch/mo/nest/ulysses/data/edwin/landcover_ulysses_from_rens_2020-07-08/parameters_untar/tall_natural_06min/tall_natural_cropcoefficient_06min.nc
interceptCapNC    = /scratch/mo/nest/ulysses/data/edwin/landcover_ulysses_from_rens_2020-07-08/parameters_untar/tall_natural_06min/tall_natural_interceptioncapacity_06min.nc
coverFractionNC   = /scratch/mo/nest/ulysses/data/edwin/landcover_ulysses_from_rens_2020-07-08/parameters_untar/tall_natural_06min/tall_natural_groundcover_06min.nc

landCoverMapsNC   = None
# If NC file is not provided, we have to provide the following pcraster maps:
fracVegCover      = /scratch/mo/nest/ulysses/data/edwin/landcover_ulysses_from_rens_2020-07-08/fractions/fraction_tall_natural_06arcmin.map
minSoilDepthFrac  = /scratch/mo/nest/ulysses/data/edwin/landcover_ulysses_from_rens_2020-07-08/parameters_untar/tall_natural_06min/tall_natural_min_rootdepth_fraction_06min.map
maxSoilDepthFrac  = /scratch/mo/nest/ulysses/data/edwin/landcover_ulysses_from_rens_2020-07-08/parameters_untar/tall_natural_06min/tall_natural_max_rootdepth_fraction_06min.map
rootFraction1     = /scratch/mo/nest/ulysses/data/edwin/landcover_ulysses_from_rens_2020-07-08/parameters_untar/tall_natural_06min/tall_natural_rootfraction_z1_06min.map
rootFraction2     = /scratch/mo/nest/ulysses/data/edwin/landcover_ulysses_from_rens_2020-07-08/parameters_untar/tall_natural_06min/tall_natural_rootfraction_z2_06min.map
maxRootDepth      = /scratch/mo/nest/ulysses/data/edwin/landcover_ulysses_from_rens_2020-07-08/parameters_untar/tall_natural_06min/tall_natural_max_rootdepth_06min.map
# Note: The maxRootDepth is not used for non irrigated land cover type. 	
#
# Parameters for the Arno's scheme:
arnoBeta = None
# If arnoBeta is defined, the soil water capacity distribution is based on this.
# If arnoBeta is NOT defined, maxSoilDepthFrac must be defined such that arnoBeta will be calculated based on maxSoilDepthFrac and minSoilDepthFrac.

# initial conditions:
interceptStorIni = /scratch/ms/copext/cyes/pcrglobwb_output_version_2020-10-08_example/first_test_54_clones/global/states/interceptStor_forest_1981-12-31.map
snowCoverSWEIni  = /scratch/ms/copext/cyes/pcrglobwb_output_version_2020-10-08_example/first_test_54_clones/global/states/snowCoverSWE_forest_1981-12-31.map
snowFreeWaterIni = /scratch/ms/copext/cyes/pcrglobwb_output_version_2020-10-08_example/first_test_54_clones/global/states/snowFreeWater_forest_1981-12-31.map
topWaterLayerIni = /scratch/ms/copext/cyes/pcrglobwb_output_version_2020-10-08_example/first_test_54_clones/global/states/topWaterLayer_forest_1981-12-31.map
storUppIni       = /scratch/ms/copext/cyes/pcrglobwb_output_version_2020-10-08_example/first_test_54_clones/global/states/storUpp_forest_1981-12-31.map
storLowIni       = /scratch/ms/copext/cyes/pcrglobwb_output_version_2020-10-08_example/first_test_54_clones/global/states/storLow_forest_1981-12-31.map
interflowIni     = /scratch/ms/copext/cyes/pcrglobwb_output_version_2020-10-08_example/first_test_54_clones/global/states/interflow_forest_1981-12-31.map


# option to skip extrapolation
noParameterExtrapolation = True


[grasslandOptions]
# we still have to spin up the model for initial conditions

name = grassland
debugWaterBalance = True

# snow module properties
snowModuleType      =  Simple
freezingT           =  0.0
degreeDayFactor     =  0.0025
snowWaterHoldingCap =  0.1
refreezingCoeff     =  0.05

# other paramater values
minTopWaterLayer  = 0.0
minCropKC         = 0.2

cropCoefficientNC = /scratch/mo/nest/ulysses/data/edwin/landcover_ulysses_from_rens_2020-07-08/parameters_untar/short_06min/short_cropcoefficient_06min.nc
interceptCapNC    = /scratch/mo/nest/ulysses/data/edwin/landcover_ulysses_from_rens_2020-07-08/parameters_untar/short_06min/short_interceptioncapacity_06min.nc
coverFractionNC   = /scratch/mo/nest/ulysses/data/edwin/landcover_ulysses_from_rens_2020-07-08/parameters_untar/short_06min/short_groundcover_06min.nc

landCoverMapsNC   = None
# If NC file is not provided, we have to provide the following pcraster maps:
fracVegCover      = /scratch/mo/nest/ulysses/data/edwin/landcover_ulysses_from_rens_2020-07-08/fractions/fraction_short_natural_06arcmin.map
minSoilDepthFrac  = /scratch/mo/nest/ulysses/data/edwin/landcover_ulysses_from_rens_2020-07-08/parameters_untar/short_06min/short_min_rootdepth_fraction_06min.map
maxSoilDepthFrac  = /scratch/mo/nest/ulysses/data/edwin/landcover_ulysses_from_rens_2020-07-08/parameters_untar/short_06min/short_max_rootdepth_fraction_06min.map
rootFraction1     = /scratch/mo/nest/ulysses/data/edwin/landcover_ulysses_from_rens_2020-07-08/parameters_untar/short_06min/short_rootfraction_z1_06min.map
rootFraction2     = /scratch/mo/nest/ulysses/data/edwin/landcover_ulysses_from_rens_2020-07-08/parameters_untar/short_06min/short_rootfraction_z2_06min.map
maxRootDepth      = /scratch/mo/nest/ulysses/data/edwin/landcover_ulysses_from_rens_2020-07-08/parameters_untar/short_06min/short_max_rootdepth_06min.map
# Note: The maxRootDepth is not used for non irrigated land cover type. 	
#
# Parameters for the Arno's scheme:
arnoBeta = None
# If arnoBeta is defined, the soil water capacity distribution is based on this.
# If arnoBeta is NOT defined, maxSoilDepthFrac must be defined such that arnoBeta will be calculated based on maxSoilDepthFrac and minSoilDepthFrac.

# initial conditions:
interceptStorIni = /scratch/ms/copext/cyes/pcrglobwb_output_version_2020-10-08_example/first_test_54_clones/global/states/interceptStor_grassland_1981-12-31.map
snowCoverSWEIni  = /scratch/ms/copext/cyes/pcrglobwb_output_version_2020-10-08_example/first_test_54_clones/global/states/snowCoverSWE_grassland_1981-12-31.map
snowFreeWaterIni = /scratch/ms/copext/cyes/pcrglobwb_output_version_2020-10-08_example/first_test_54_clones/global/states/snowFreeWater_grassland_1981-12-31.map
topWaterLayerIni = /scratch/ms/copext/cyes/pcrglobwb_output_version_2020-10-08_example/first_test_54_clones/global/states/topWaterLayer_grassland_1981-12-31.map
storUppIni       = /scratch/ms/copext/cyes/pcrglobwb_output_version_2020-10-08_example/first_test_54_clones/global/states/storUpp_grassland_1981-12-31.map
storLowIni       = /scratch/ms/copext/cyes/pcrglobwb_output_version_2020-10-08_example/first_test_54_clones/global/states/storLow_grassland_1981-12-31.map
interflowIni     = /scratch/ms/copext/cyes/pcrglobwb_output_version_2020-10-08_example/first_test_54_clones/global/states/interflow_grassland_1981-12-31.map

# option to skip extrapolation
noParameterExtrapolation = True


[urbanOptions]
# we still have to spin up the model for initial conditions

name = urban
debugWaterBalance = True

# snow module properties
snowModuleType      =  Simple
freezingT           =  0.0
degreeDayFactor     =  0.0025
snowWaterHoldingCap =  0.1
refreezingCoeff     =  0.05

# other paramater values
minTopWaterLayer  = 0.0
minCropKC         = 0.2

cropCoefficientNC = /scratch/mo/nest/ulysses/data/edwin/landcover_ulysses_from_rens_2020-07-08/parameters_untar/urban_06min/urban_cropcoefficient_06min.nc
interceptCapNC    = /scratch/mo/nest/ulysses/data/edwin/landcover_ulysses_from_rens_2020-07-08/parameters_untar/urban_06min/urban_interceptioncapacity_06min.nc
coverFractionNC   = /scratch/mo/nest/ulysses/data/edwin/landcover_ulysses_from_rens_2020-07-08/parameters_untar/urban_06min/urban_groundcover_06min.nc

landCoverMapsNC   = None
# If NC file is not provided, we have to provide the following pcraster maps:
fracVegCover      = /scratch/mo/nest/ulysses/data/edwin/landcover_ulysses_from_rens_2020-07-08/fractions/fraction_urban_06arcmin.map
minSoilDepthFrac  = /scratch/mo/nest/ulysses/data/edwin/landcover_ulysses_from_rens_2020-07-08/parameters_untar/urban_06min/urban_min_rootdepth_fraction_06min.map
maxSoilDepthFrac  = /scratch/mo/nest/ulysses/data/edwin/landcover_ulysses_from_rens_2020-07-08/parameters_untar/urban_06min/urban_max_rootdepth_fraction_06min.map
rootFraction1     = /scratch/mo/nest/ulysses/data/edwin/landcover_ulysses_from_rens_2020-07-08/parameters_untar/urban_06min/urban_rootfraction_z1_06min.map
rootFraction2     = /scratch/mo/nest/ulysses/data/edwin/landcover_ulysses_from_rens_2020-07-08/parameters_untar/urban_06min/urban_rootfraction_z2_06min.map
maxRootDepth      = /scratch/mo/nest/ulysses/data/edwin/landcover_ulysses_from_rens_2020-07-08/parameters_untar/urban_06min/urban_max_rootdepth_06min.map
# Note: The maxRootDepth is not used for non irrigated land cover type. 	
#
# Parameters for the Arno's scheme:
arnoBeta = None
# If arnoBeta is defined, the soil water capacity distribution is based on this.
# If arnoBeta is NOT defined, maxSoilDepthFrac must be defined such that arnoBeta will be calculated based on maxSoilDepthFrac and minSoilDepthFrac.

# initial conditions:
interceptStorIni = /scratch/ms/copext/cyes/pcrglobwb_output_version_2020-10-08_example/first_test_54_clones/global/states/interceptStor_urban_1981-12-31.map
snowCoverSWEIni  = /scratch/ms/copext/cyes/pcrglobwb_output_version_2020-10-08_example/first_test_54_clones/global/states/snowCoverSWE_urban_1981-12-31.map
snowFreeWaterIni = /scratch/ms/copext/cyes/pcrglobwb_output_version_2020-10-08_example/first_test_54_clones/global/states/snowFreeWater_urban_1981-12-31.map
topWaterLayerIni = /scratch/ms/copext/cyes/pcrglobwb_output_version_2020-10-08_example/first_test_54_clones/global/states/topWaterLayer_urban_1981-12-31.map
storUppIni       = /scratch/ms/copext/cyes/pcrglobwb_output_version_2020-10-08_example/first_test_54_clones/global/states/storUpp_urban_1981-12-31.map
storLowIni       = /scratch/ms/copext/cyes/pcrglobwb_output_version_2020-10-08_example/first_test_54_clones/global/states/storLow_urban_1981-12-31.map
interflowIni     = /scratch/ms/copext/cyes/pcrglobwb_output_version_2020-10-08_example/first_test_54_clones/global/states/interflow_urban_1981-12-31.map

# option to skip extrapolation
noParameterExtrapolation = True


[cropOptions]
# we still have to spin up the model for initial conditions

name = crop
debugWaterBalance = True

# snow module properties
snowModuleType      =  Simple
freezingT           =  0.0
degreeDayFactor     =  0.0025
snowWaterHoldingCap =  0.1
refreezingCoeff     =  0.05

# other paramater values
minTopWaterLayer  = 0.0
minCropKC         = 0.2

cropCoefficientNC = /scratch/mo/nest/ulysses/data/edwin/landcover_ulysses_from_rens_2020-07-08/parameters_untar/crops_06min/crops_cropcoefficient_06min.nc
interceptCapNC    = /scratch/mo/nest/ulysses/data/edwin/landcover_ulysses_from_rens_2020-07-08/parameters_untar/crops_06min/crops_interceptioncapacity_06min.nc
coverFractionNC   = /scratch/mo/nest/ulysses/data/edwin/landcover_ulysses_from_rens_2020-07-08/parameters_untar/crops_06min/crops_groundcover_06min.nc

landCoverMapsNC   = None
# If NC file is not provided, we have to provide the following pcraster maps:
fracVegCover      = /scratch/mo/nest/ulysses/data/edwin/landcover_ulysses_from_rens_2020-07-08/fractions/fraction_cropland_06arcmin.map
minSoilDepthFrac  = /scratch/mo/nest/ulysses/data/edwin/landcover_ulysses_from_rens_2020-07-08/parameters_untar/crops_06min/crops_min_rootdepth_fraction_06min.map
maxSoilDepthFrac  = /scratch/mo/nest/ulysses/data/edwin/landcover_ulysses_from_rens_2020-07-08/parameters_untar/crops_06min/crops_max_rootdepth_fraction_06min.map
rootFraction1     = /scratch/mo/nest/ulysses/data/edwin/landcover_ulysses_from_rens_2020-07-08/parameters_untar/crops_06min/crops_rootfraction_z1_06min.map
rootFraction2     = /scratch/mo/nest/ulysses/data/edwin/landcover_ulysses_from_rens_2020-07-08/parameters_untar/crops_06min/crops_rootfraction_z2_06min.map
maxRootDepth      = /scratch/mo/nest/ulysses/data/edwin/landcover_ulysses_from_rens_2020-07-08/parameters_untar/crops_06min/crops_max_rootdepth_06min.map
# Note: The maxRootDepth is not used for non irrigated land cover type. 	
#
# Parameters for the Arno's scheme:
arnoBeta = None
# If arnoBeta is defined, the soil water capacity distribution is based on this.
# If arnoBeta is NOT defined, maxSoilDepthFrac must be defined such that arnoBeta will be calculated based on maxSoilDepthFrac and minSoilDepthFrac.

# initial conditions:
interceptStorIni = /scratch/ms/copext/cyes/pcrglobwb_output_version_2020-10-08_example/first_test_54_clones/global/states/interceptStor_crop_1981-12-31.map
snowCoverSWEIni  = /scratch/ms/copext/cyes/pcrglobwb_output_version_2020-10-08_example/first_test_54_clones/global/states/snowCoverSWE_crop_1981-12-31.map
snowFreeWaterIni = /scratch/ms/copext/cyes/pcrglobwb_output_version_2020-10-08_example/first_test_54_clones/global/states/snowFreeWater_crop_1981-12-31.map
topWaterLayerIni = /scratch/ms/copext/cyes/pcrglobwb_output_version_2020-10-08_example/first_test_54_clones/global/states/topWaterLayer_crop_1981-12-31.map
storUppIni       = /scratch/ms/copext/cyes/pcrglobwb_output_version_2020-10-08_example/first_test_54_clones/global/states/storUpp_crop_1981-12-31.map
storLowIni       = /scratch/ms/copext/cyes/pcrglobwb_output_version_2020-10-08_example/first_test_54_clones/global/states/storLow_crop_1981-12-31.map
interflowIni     = /scratch/ms/copext/cyes/pcrglobwb_output_version_2020-10-08_example/first_test_54_clones/global/states/interflow_crop_1981-12-31.map

# option to skip extrapolation
noParameterExtrapolation = True


[groundwaterOptions]
# we still have to spin up the model for initial conditions

debugWaterBalance = True

#~ groundwaterPropertiesNC = /scratch/mo/nest/ulysses/data/edwin/pcrglobwb/pcrglobwb2_input/global_06min_resampled_from_global_05min/groundwater/properties/groundwaterProperties5ArcMin.nc
#~ # The file will containspecificYield (m3.m-3), kSatAquifer, recessionCoeff (day-1)
#~ #
#~ specificYield  = None
#~ recessionCoeff = None
#~ kSatAquifer    = None
#~ #
#~ # - minimum value for groundwater recession coefficient (day-1) 
#~ minRecessionCoeff = 1.0e-4


# the nc file should be just dummy - TODO: FIX/REMOVE THIS
groundwaterPropertiesNC = /scratch/mo/nest/ulysses/data/edwin/pcrglobwb/pcrglobwb2_input/global_06min_resampled_from_global_05min/groundwater/properties/groundwaterProperties5ArcMin.nc
#
specificYield  = /home/ms/copext/cyes/links/scratch_ulysses/data/edwin/recession_coefficient_version_20200708_USE-THIS/06min/specific_yield_aquifer_06min.map
recessionCoeff = /home/ms/copext/cyes/links/scratch_ulysses/data/edwin/recession_coefficient_version_20200708_USE-THIS/06min/recession_coefficient_06min.map
kSatAquifer    = /home/ms/copext/cyes/links/scratch_ulysses/data/edwin/recession_coefficient_version_20200708_USE-THIS/06min/k_conductivity_aquifer_06min.map
#
# - minimum value for groundwater recession coefficient (day-1) 
minRecessionCoeff = 1.0e-4


doNotExtrapolateThickness = True
noParameterExtrapolation  = True

# initial conditions:
storGroundwaterIni                        = /scratch/ms/copext/cyes/pcrglobwb_output_version_2020-10-08_example/first_test_54_clones/global/states/storGroundwater_1981-12-31.map
storGroundwaterFossilIni                  = /scratch/ms/copext/cyes/pcrglobwb_output_version_2020-10-08_example/first_test_54_clones/global/states/storGroundwaterFossil_1981-12-31.map
#
# additional initial conditions for pumping behaviors
avgNonFossilGroundwaterAllocationLongIni  = /scratch/ms/copext/cyes/pcrglobwb_output_version_2020-10-08_example/first_test_54_clones/global/states/avgNonFossilGroundwaterAllocationLong_1981-12-31.map
avgNonFossilGroundwaterAllocationShortIni = /scratch/ms/copext/cyes/pcrglobwb_output_version_2020-10-08_example/first_test_54_clones/global/states/avgNonFossilGroundwaterAllocationShort_1981-12-31.map
avgTotalGroundwaterAbstractionIni         = /scratch/ms/copext/cyes/pcrglobwb_output_version_2020-10-08_example/first_test_54_clones/global/states/avgTotalGroundwaterAbstraction_1981-12-31.map
avgTotalGroundwaterAllocationLongIni      = /scratch/ms/copext/cyes/pcrglobwb_output_version_2020-10-08_example/first_test_54_clones/global/states/avgTotalGroundwaterAllocationLong_1981-12-31.map
avgTotalGroundwaterAllocationShortIni     = /scratch/ms/copext/cyes/pcrglobwb_output_version_2020-10-08_example/first_test_54_clones/global/states/avgTotalGroundwaterAllocationShort_1981-12-31.map
#
# additional initial conditions (needed only for MODFLOW run) 
relativeGroundwaterHeadIni                = /scratch/ms/copext/cyes/pcrglobwb_output_version_2020-10-08_example/first_test_54_clones/global/states/relativeGroundwaterHead_1981-12-31.map
baseflowIni                               = /scratch/ms/copext/cyes/pcrglobwb_output_version_2020-10-08_example/first_test_54_clones/global/states/baseflow_1981-12-31.map


[routingOptions]
# we still have to spin up the model for initial conditions

debugWaterBalance = True

# drainage direction map
#~ lddMap   = 5.0
#~ lddMap   = /scratch/mo/nest/ulysses/data/edwin/ulysses_river_network_adjusted_for_pcrglobwb/version_2020-07-21/final/flwdir_pcraster_ldd_covered.map
lddMap      = /home/ms/copext/cyes/links/scratch_ulysses/data/edwin/lakes_and_reservoirs/version_202007XX/netcdf_and_ldd/lddsound_06min_version_202007XX_for_ulysses.map

# cell area (unit: m2)
cellAreaMap = /scratch/mo/nest/ulysses/data/edwin/ulysses_river_network_adjusted_for_pcrglobwb/version_2020-07-21/final/cdo_griddarea.map

# routing method:
routingMethod = accuTravelTime

# manning coefficient
manningsN   = 0.04

# Option for flood plain simulation
dynamicFloodPlain = False


# channel gradient
gradient             = /scratch/mo/nest/ulysses/data/edwin/floodplain_06min/global_ulysses_version_202007XX_not_corrected_to_water_bodies/map/channel_gradient.map

# constant channel depth 
constantChannelDepth = /scratch/mo/nest/ulysses/data/edwin/floodplain_06min/global_ulysses_version_202007XX_not_corrected_to_water_bodies/map/bankfull_depth.map

# constant channel width (optional)
constantChannelWidth = /scratch/mo/nest/ulysses/data/edwin/floodplain_06min/global_ulysses_version_202007XX_not_corrected_to_water_bodies/map/bankfull_width.map

# minimum channel width (optional)
minimumChannelWidth  = /scratch/mo/nest/ulysses/data/edwin/floodplain_06min/global_ulysses_version_202007XX_not_corrected_to_water_bodies/map/bankfull_width.map

# channel properties for flooding
bankfullCapacity     = None
# - If None, it will be estimated from (bankfull) channel depth (m) and width (m) 


# composite crop factors for WaterBodies: 
cropCoefficientWaterNC = /scratch/mo/nest/ulysses/data/edwin/pcrglobwb/pcrglobwb2_input/global_30min/routing/kc_surface_water/cropCoefficientForOpenWater.nc
minCropWaterKC         = 1.00


# lake and reservoir parameters
includeWaterBodies     = True
waterBodyInputNC       = /home/ms/copext/cyes/links/scratch_ulysses/data/edwin/lakes_and_reservoirs/version_202007XX/netcdf_and_ldd/lakes_and_reservoirs_06min_global_version_july_2020_for_ulysses.nc
#~ fracWaterInp        = None
#~ waterBodyIds        = None
#~ waterBodyTyp        = None
#~ resMaxCapInp        = None
#~ resSfAreaInp        = None
onlyNaturalWaterBodies = False


# initial conditions:
waterBodyStorageIni            = /scratch/ms/copext/cyes/pcrglobwb_output_version_2020-10-08_example/first_test_54_clones/global/states/waterBodyStorage_1981-12-31.map
channelStorageIni              = /scratch/ms/copext/cyes/pcrglobwb_output_version_2020-10-08_example/first_test_54_clones/global/states/channelStorage_1981-12-31.map
readAvlChannelStorageIni       = /scratch/ms/copext/cyes/pcrglobwb_output_version_2020-10-08_example/first_test_54_clones/global/states/readAvlChannelStorage_1981-12-31.map
avgDischargeLongIni            = /scratch/ms/copext/cyes/pcrglobwb_output_version_2020-10-08_example/first_test_54_clones/global/states/avgDischargeLong_1981-12-31.map
avgDischargeShortIni           = /scratch/ms/copext/cyes/pcrglobwb_output_version_2020-10-08_example/first_test_54_clones/global/states/avgDischargeShort_1981-12-31.map
m2tDischargeLongIni            = /scratch/ms/copext/cyes/pcrglobwb_output_version_2020-10-08_example/first_test_54_clones/global/states/m2tDischargeLong_1981-12-31.map
avgBaseflowLongIni             = /scratch/ms/copext/cyes/pcrglobwb_output_version_2020-10-08_example/first_test_54_clones/global/states/avgBaseflowLong_1981-12-31.map
riverbedExchangeIni            = /scratch/ms/copext/cyes/pcrglobwb_output_version_2020-10-08_example/first_test_54_clones/global/states/riverbedExchange_1981-12-31.map
#
# initial condition of sub-time step discharge (needed for estimating number of time steps in kinematic wave methods)
subDischargeIni                = /scratch/ms/copext/cyes/pcrglobwb_output_version_2020-10-08_example/first_test_54_clones/global/states/subDischarge_1981-12-31.map
#
avgLakeReservoirInflowShortIni = /scratch/ms/copext/cyes/pcrglobwb_output_version_2020-10-08_example/first_test_54_clones/global/states/avgLakeReservoirInflowShort_1981-12-31.map
avgLakeReservoirOutflowLongIni = /scratch/ms/copext/cyes/pcrglobwb_output_version_2020-10-08_example/first_test_54_clones/global/states/avgLakeReservoirOutflowLong_1981-12-31.map
#
# number of days (timesteps) that have been performed for spinning up initial conditions in the routing module (i.e. channelStorageIni, avgDischargeLongIni, avgDischargeShortIni, etc.)
timestepsToAvgDischargeIni     = /scratch/ms/copext/cyes/pcrglobwb_output_version_2020-10-08_example/first_test_54_clones/global/states/timestepsToAvgDischarge_1981-12-31.map
# Note that: 
# - maximum number of days (timesteps) to calculate long term average flow values (default: 5 years = 5 * 365 days = 1825)
# - maximum number of days (timesteps) to calculate short term average values (default: 1 month = 1 * 30 days = 30)


[reportingOptions]

# landmask for reporting
#~ landmask_for_reporting = /scratch/mo/nest/ulysses/data/edwin/clone_maps/version_2020-07-21/clone_mask_basin_%s.map
#~ landmask_for_reporting = /scratch/mo/nest/ulysses/data/edwin/clone_maps/version_2020-08-04/pcraster_maps/landmask_land_mask_%s.map
landmask_for_reporting    = /scratch/mo/nest/ulysses/data/edwin/clone_maps/version_2020-08-06_with-quick-fix-for-48-and-50/pcraster_maps/landmask_land_mask_%s.map

#~ (pcrglobwb_python3) cyes@ccb-login4:/scratch/mo/nest/ulysses/data/edwin/clone_maps/version_2020-08-04/pcraster_maps> ls -lah *54*
#~ -rw-rw-r--+ 1 cyes copext 152K Aug  4 12:45 clonemap_mask_54.map
#~ -rw-rw-r--+ 1 cyes copext  20M Aug  4 12:45 global_landmask_river_and_land_mask_54.map
#~ -rw-rw-r--+ 1 cyes copext 152K Aug  4 12:45 landmask_land_mask_54.map
#~ -rw-rw-r--+ 1 cyes copext 152K Aug  4 12:45 landmask_river_and_land_mask_54.map

# output files that will be written in the disk in netcdf files:
# - daily resolution
outDailyTotNC = discharge,ulyssesP,ulyssesET,ulyssesSWE,ulyssesQsm,ulyssesSM,ulyssesQrRunoff,ulyssesDischarge
# - monthly resolution
outMonthTotNC = precipitation,referencePotET,totalEvaporation,totalRunoff,gwRecharge
outMonthAvgNC = temperature,gwRecharge,discharge,ulyssesP,ulyssesET,ulyssesSWE,ulyssesQsm,ulyssesSM,ulyssesQrRunoff,ulyssesDischarge,totalWaterStorageThickness
outMonthEndNC = ulyssesSWE,ulyssesSM,totalWaterStorageThickness
# - annual resolution