[globalOptions]

# Set the pcrglobwb output directory in an absolute path.
#~ outputDir    = /scratch/depfg/sutan101/pcrglobwb_aqueduct_2021_debug_et_nawuni/0_reference/
#~ outputDir    = /scratch/depfg/sutan101/pcrglobwb_aqueduct_2021_debug_et_nawuni/1_latest_version/
#~ outputDir    = /scratch/depfg/sutan101/pcrglobwb_aqueduct_2021_debug_et_nawuni/2_latest-version-script_dem/
#~ outputDir    = /scratch/depfg/sutan101/pcrglobwb_aqueduct_2021_debug_et_nawuni/3_latest-version-script_dem_gwg/
#~ outputDir    = /scratch/depfg/sutan101/pcrglobwb_aqueduct_2021_debug_et_nawuni/4_latest-version-script_dem_gwg_ldd-wb/
outputDir       = /scratch/depfg/sutan101/pcrglobwb_aqueduct_2021_debug_et_nawuni/5_latest-version-script_dem_gwg_ldd-wb_chn/

# Set the input directory map in an absolute path. 
# - The input forcing and parameter directories and files will be relative to this.
inputDir     = /scratch/depfg/sutan101/data/pcrglobwb2_input_release/version_2019_11_beta_extended/pcrglobwb2_input/

# Map of clone (must be provided in PCRaster maps)
# - Spatial resolution and coverage are based on this map:
#~ cloneMap = global_05min/routing/ldd_and_cell_area/lddsound_05min.nc
#~ cloneMap = global_05min/cloneMaps/RhineMeuse05min.clone.nc
#~ cloneMap = global_05min/cloneMaps/RhineMeuse05min.clone.nc
cloneMap    = /scratch/depfg/sutan101/data/pcrglobwb_input_arise/develop/global_05min/cloneMaps/clone_downstream_nawuni.map

# The area/landmask of interest:
# If None, area/landmask is limited for cells with ldd value. 
landmask    = None

# netcdf attributes for output files:
institution = Department of Physical Geography, Utrecht University
title       = PCR-GLOBWB 2 output (not coupled to MODFLOW), with human factors (non-natural) - development version for the WRI Aqueduct project started in 2021
description = by Edwin H. Sutanudjaja (contact: e.h.sutanudjaja@uu.nl), PCR-GLOBWB run with human factors (non-natural) at 5 arcmin resolution

startTime = 2001-01-01
endTime   = 2010-12-31
# Format: YYYY-MM-DD ; The model runs on daily time step.

# spinning up options:
maxSpinUpsInYears = 5
minConvForSoilSto = 0.0
minConvForGwatSto = 0.0
minConvForChanSto = 0.0
minConvForTotlSto = 0.0

# option/directory for saving the spin-up directory 
spinUpOutputDir = True


[meteoOptions]

#~ # Set the forcing temperature and precipitation files (relative to inputDir)
#~ precipitationNC = global_30min/meteo/forcing/daily_precipitation_cru_era-interim_2000_to_2010.nc
#~ temperatureNC   = global_30min/meteo/forcing/daily_temperature_cru_era-interim_2000_to_2010.nc

#~ sutan101@login01.cluster:/scratch/depfg/sutan101/data/isimip_forcing/isimip3a/copied_on_2020-12-XX/GSWP3-W5E5$ ls -lah *2010*
#~ -rw-r--r-- 1 sutan101 depfg 2.4G Dec  7 05:59 gswp3-w5e5_obsclim_hurs_global_daily_2001_2010.nc
#~ -rw-r--r-- 1 sutan101 depfg 2.5G Dec  7 06:05 gswp3-w5e5_obsclim_huss_global_daily_2001_2010.nc
#~ -rw-r--r-- 1 sutan101 depfg 2.3G Dec  7 06:09 gswp3-w5e5_obsclim_pr_global_daily_2001_2010.nc
#~ -rw-r--r-- 1 sutan101 depfg 2.0G Dec  7 06:14 gswp3-w5e5_obsclim_ps_global_daily_2001_2010.nc
#~ -rw-r--r-- 1 sutan101 depfg 2.3G Dec  7 06:20 gswp3-w5e5_obsclim_rlds_global_daily_2001_2010.nc
#~ -rw-r--r-- 1 sutan101 depfg 2.4G Dec  7 06:27 gswp3-w5e5_obsclim_rsds_global_daily_2001_2010.nc
#~ -rw-r--r-- 1 sutan101 depfg 2.6G Dec  7 06:34 gswp3-w5e5_obsclim_sfcwind_global_daily_2001_2010.nc
#~ -rw-r--r-- 1 sutan101 depfg 2.0G Dec  7 06:40 gswp3-w5e5_obsclim_tas_global_daily_2001_2010.nc
#~ -rw-r--r-- 1 sutan101 depfg 2.0G Dec  7 06:45 gswp3-w5e5_obsclim_tasmax_global_daily_2001_2010.nc
#~ -rw-r--r-- 1 sutan101 depfg 2.0G Dec  7 06:51 gswp3-w5e5_obsclim_tasmin_global_daily_2001_2010.nc

# Set the forcing temperature and precipitation files
precipitationNC = /scratch/depfg/sutan101/data/isimip_forcing/isimip3a/copied_on_2020-12-XX/GSWP3-W5E5/gswp3-w5e5_obsclim_pr_global_daily_2001_2010.nc
temperatureNC   = /scratch/depfg/sutan101/data/isimip_forcing/isimip3a/copied_on_2020-12-XX/GSWP3-W5E5/gswp3-w5e5_obsclim_tas_global_daily_2001_2010.nc

# conversion constants and factors to correct forcing values (optional) so that the units are in m.day-1 and degree Celcius                                                                                                           
precipitationConstant    = 0.0
precipitationFactor      = 86.4
temperatureConstant      = -273.15
temperatureFactor        = 1.0


# Method to calculate referencePotETP (reference potential evaporation+transpiration)
referenceETPotMethod = Penman-Monteith
refETPotFileNC       = None


# meteo variables for calculating reference potential evaporation based on Penman-Monteith (optional)
#
# - 10 m wind speed, unit: m.s-1
wind_speed_10m              = /scratch/depfg/sutan101/data/isimip_forcing/isimip3a/copied_on_2020-12-XX/GSWP3-W5E5/gswp3-w5e5_obsclim_sfcwind_global_daily_2001_2010.nc
#~ # - if wind_speed_10m is None, it will be estimated from u and v components
#~ wind_speed_10m_u_comp    = None
#~ wind_speed_10m_v_comp    = None
#
# - atmospheric pressure, unit: Pascal
atmospheric_pressure        = /scratch/depfg/sutan101/data/isimip_forcing/isimip3a/copied_on_2020-12-XX/GSWP3-W5E5/gswp3-w5e5_obsclim_ps_global_daily_2001_2010.nc
#
# - shortwave (solar) radiation, unit: J.m-2.day-1 (default) or W.m-2
shortwave_radiation = /scratch/depfg/sutan101/data/isimip_forcing/isimip3a/copied_on_2020-12-XX/GSWP3-W5E5/gswp3-w5e5_obsclim_rsds_global_daily_2001_2010.nc
shortwave_radiation_input_in_w_per_m2 = True 
#
#~ # - if shortwave_radiation = None, actual shortwave (solar) radiation can be estimated from net radiation and albedo: ssrd = ssr / (1 - albedo) 
#~ surface_net_solar_radiation = None
#~ albedo                      = None
#
#~ # - longwave radiation, unit: J.m-2.day-1 (default) or W.m-2
#~ longwave_radiation = /scratch/depfg/sutan101/data/isimip_forcing/isimip3a/copied_on_2020-12-XX/GSWP3-W5E5/gswp3-w5e5_obsclim_rlds_global_daily_2001_2010.nc
#~ longwave_radiation_input_in_w_per_m2 = True 
#
#~ # - extraterestrial radiation, unit: J.m-2.day-1 (default) or W.m-2
#~ extraterestrial_radiation  = None
#~ # - if extraterestrial_radiation is None, it will be calculated based on day length, latitude, day angle and day length
#
# - relative humidity, unit: 1 
relative_humidity = /scratch/depfg/sutan101/data/isimip_forcing/isimip3a/copied_on_2020-12-XX/GSWP3-W5E5/gswp3-w5e5_obsclim_hurs_global_daily_2001_2010.nc
consta_for_relative_humidity = 0.0                                                                                                      
factor_for_relative_humidity = 0.01 
#
#~ # - 2 m dew point temperature (average), unit: degree Celcius  
#~ dewpoint_temperature_avg = None
#~ #
#~ # conversion constants and factors to correct forcing values (optional) so that the units are in m.day-1 (precipitation), degree Celcius (temperature), Pascal (pressure), m.s-1, and J.m-2.day-1 (radiation)
#~ consta_for_dewpoint_temperature_avg = -273.15                                                                                                      
#~ factor_for_dewpoint_temperature_avg = 1.0 


# initial conditions:
avgAnnualPrecipitationIni    = 0.0
avgAnnualTemperatureIni      = 0.0
avgAnnualDiurnalDeltaTempIni = 0.0



[meteoDownscalingOptions]
# This section is for a 5 arcmin run, for downscaling meteorological forcing at 30 arcmin to 5 arcmin.  
                                                                                                                                        
downscalePrecipitation  = False                                                                                                                                   
downscaleTemperature    = True                                                                                                                                   
downscaleReferenceETPot = False                                                                                                                                   
   
# downscaling (based on the digital elevation model):                                                                                                            
# The downscaling will be performed by providing the "cellIds" (meteoDownscaleIds) of lower resolution cells.                                                    
meteoDownscaleIds = global_05min/meteo/downscaling_from_30min/uniqueIds_30min.nc                                                                      

#~ highResolutionDEM = global_05min/meteo/downscaling_from_30min/gtopo05min.nc                                                                           
highResolutionDEM    = /scratch/depfg/sutan101/data/pcrglobwb_input_arise/develop/global_05min/landSurface/topography/version_202104XX_from_merit_dem/maps_covered_with_zero/dem_average_topography_parameters_5min_april_2021_global_covered_with_zero.nc                                                                           

   
# lapse rates:                                                                                                                                                   
temperLapseRateNC = global_05min/meteo/downscaling_from_30min/temperature_slope.nc                                                                     
precipLapseRateNC = global_05min/meteo/downscaling_from_30min/precipitation_slope.nc                                                                   
                                                                                                                                                                 
# downscaling criteria (TODO: remove these):                                                                                                                     
temperatCorrelNC  = global_05min/meteo/downscaling_from_30min/temperature_correl.nc                                                                     
precipitCorrelNC  = global_05min/meteo/downscaling_from_30min/precipitation_correl.nc                                                                   
                                                                                                                                                                 
# windows length (unit: arc-degree) for smoothing/averaging forcing data (not recommended):                                                                      
smoothingWindowsLength = 0


[landSurfaceOptions]

debugWaterBalance = True

numberOfUpperSoilLayers = 2

# soil and parameters
# - they are used for all land cover types, unless they are are defined in certain land cover type options 
#   (e.g. different/various soil types for agriculture areas)  
soilPropertiesNC = global_05min/landSurface/soil/soilProperties5ArcMin.nc

#~ topographyNC  = global_05min/landSurface/topography/topography_parameters_5_arcmin_october_2015.nc
topographyNC     = /scratch/depfg/sutan101/data/pcrglobwb_input_arise/develop/global_05min/landSurface/topography/version_202104XX_from_merit_dem/maps_covered_with_zero/topography_parameters_5min_april_2021_global_covered_with_zero.nc



includeIrrigation = True

# netcdf time series for historical expansion of irrigation areas (unit: hectares). 
# Note: The resolution of this map must be consisten with the resolution of cellArea. 
historicalIrrigationArea = global_05min/waterUse/irrigation/irrigated_areas/irrigationArea05ArcMin.nc

# a pcraster map/value defining irrigation efficiency (dimensionless) - optional
irrigationEfficiency     = global_30min/waterUse/irrigation/irrigation_efficiency/efficiency.nc


includeDomesticWaterDemand  = True
includeIndustryWaterDemand  = True
includeLivestockWaterDemand = True

# domestic, industrial and livestock water demand data (unit must be in m.day-1)
domesticWaterDemandFile  = global_05min/waterUse/waterDemand/domestic/domestic_water_demand_version_april_2015.nc
industryWaterDemandFile  = global_05min/waterUse/waterDemand/industry/industry_water_demand_version_april_2015.nc
livestockWaterDemandFile = global_05min/waterUse/waterDemand/livestock/livestock_water_demand_version_april_2015.nc


# desalination water supply (maximum/potential/capacity)
desalinationWater = global_05min/waterUse/desalination/desalination_water_version_april_2015.nc


# zone IDs (scale) at which allocations of groundwater and surface water (as well as desalinated water) are performed  
allocationSegmentsForGroundSurfaceWater = global_05min/waterUse/abstraction_zones/abstraction_zones_60min_05min.nc


# pcraster maps defining the partitioning of groundwater - surface water source 
#
# - predefined surface water - groundwater partitioning for irrigation demand (e.g. based on Siebert, Global Map of Irrigation Areas version 5)
irrigationSurfaceWaterAbstractionFractionData           = global_05min/waterUse/source_partitioning/surface_water_fraction_for_irrigation/AEI_SWFRAC.nc
# -- quality map
irrigationSurfaceWaterAbstractionFractionDataQuality    = global_05min/waterUse/source_partitioning/surface_water_fraction_for_irrigation/AEI_QUAL.nc
#
# - threshold values defining the preference for surface water source for irrigation purpose
# -- treshold to maximize surface water irrigation use (cells with irrSurfaceWaterAbstractionFraction above this will prioritize irrigation surface water use)
treshold_to_maximize_irrigation_surface_water           = 0.50
# -- treshold to minimize fossil water withdrawal for irrigation (cells with irrSurfaceWaterAbstractionFraction below this have no fossil withdrawal for irrigation)
treshold_to_minimize_fossil_groundwater_irrigation      = 0.70
#
# - predefined surface water - groundwater partitioning for non irrigation demand (e.g. based on McDonald, 2014)
maximumNonIrrigationSurfaceWaterAbstractionFractionData = global_30min/waterUse/source_partitioning/surface_water_fraction_for_non_irrigation/max_city_sw_fraction.nc


[forestOptions]

name = forest
debugWaterBalance = True

# snow module properties
snowModuleType      =  Simple
freezingT           =  0.0
degreeDayFactor     =  0.0025
snowWaterHoldingCap =  0.1
refreezingCoeff     =  0.05

# other paramater values
minTopWaterLayer  = 0.0
minCropKC         = 0.2

cropCoefficientNC = global_05min/landSurface/landCover/naturalTall/cropCoefficientForest.nc
interceptCapNC    = global_05min/landSurface/landCover/naturalTall/interceptCapInputForest.nc
coverFractionNC   = global_05min/landSurface/landCover/naturalTall/coverFractionInputForest.nc

landCoverMapsNC   = None
# If NC file is not provided, we have to provide the following pcraster maps:
fracVegCover      = global_05min/landSurface/landCover/naturalTall/vegf_tall.nc
minSoilDepthFrac  = global_30min/landSurface/landCover/naturalTall/minf_tall_permafrost.nc
maxSoilDepthFrac  = global_30min/landSurface/landCover/naturalTall/maxf_tall.nc
rootFraction1     = global_05min/landSurface/landCover/naturalTall/rfrac1_tall.nc
rootFraction2     = global_05min/landSurface/landCover/naturalTall/rfrac2_tall.nc	
maxRootDepth      = 1.0
# Note: The maxRootDepth is not used for non irrigated land cover type. 	
#
# Parameters for the Arno's scheme:
arnoBeta = None
# If arnoBeta is defined, the soil water capacity distribution is based on this.
# If arnoBeta is NOT defined, maxSoilDepthFrac must be defined such that arnoBeta will be calculated based on maxSoilDepthFrac and minSoilDepthFrac.

# initial conditions:
interceptStorIni = global_05min/initialConditions/non-natural/1999/interceptStor_forest_1999-12-31.nc
snowCoverSWEIni  = global_05min/initialConditions/non-natural/1999/snowCoverSWE_forest_1999-12-31.nc
snowFreeWaterIni = global_05min/initialConditions/non-natural/1999/snowFreeWater_forest_1999-12-31.nc
topWaterLayerIni = global_05min/initialConditions/non-natural/1999/topWaterLayer_forest_1999-12-31.nc
storUppIni       = global_05min/initialConditions/non-natural/1999/storUpp_forest_1999-12-31.nc
storLowIni       = global_05min/initialConditions/non-natural/1999/storLow_forest_1999-12-31.nc
interflowIni     = global_05min/initialConditions/non-natural/1999/interflow_forest_1999-12-31.nc


[grasslandOptions]

name = grassland
debugWaterBalance = True

# snow module properties
snowModuleType      =  Simple
freezingT           =  0.0
degreeDayFactor     =  0.0025
snowWaterHoldingCap =  0.1
refreezingCoeff     =  0.05

# other paramater values
minTopWaterLayer = 0.0
minCropKC        = 0.2

cropCoefficientNC = global_05min/landSurface/landCover/naturalShort/cropCoefficientGrassland.nc
interceptCapNC    = global_05min/landSurface/landCover/naturalShort/interceptCapInputGrassland.nc
coverFractionNC   = global_05min/landSurface/landCover/naturalShort/coverFractionInputGrassland.nc

landCoverMapsNC   = None
# If NC file is not provided, we have to provide the following values:
fracVegCover      = global_05min/landSurface/landCover/naturalShort/vegf_short.nc
minSoilDepthFrac  = global_30min/landSurface/landCover/naturalShort/minf_short_permafrost.nc
maxSoilDepthFrac  = global_30min/landSurface/landCover/naturalShort/maxf_short.nc
rootFraction1     = global_05min/landSurface/landCover/naturalShort/rfrac1_short.nc
rootFraction2     = global_05min/landSurface/landCover/naturalShort/rfrac2_short.nc	
maxRootDepth      = 0.5
# Note: The maxRootDepth is not used for non irrigated land cover type. 	
#
# Parameters for the Arno's scheme:
arnoBeta = None
# If arnoBeta is defined, the soil water capacity distribution is based on this.
# If arnoBeta is NOT defined, maxSoilDepthFrac must be defined such that arnoBeta will be calculated based on maxSoilDepthFrac and minSoilDepthFrac.

# initial conditions:
interceptStorIni = global_05min/initialConditions/non-natural/1999/interceptStor_grassland_1999-12-31.nc
snowCoverSWEIni  = global_05min/initialConditions/non-natural/1999/snowCoverSWE_grassland_1999-12-31.nc
snowFreeWaterIni = global_05min/initialConditions/non-natural/1999/snowFreeWater_grassland_1999-12-31.nc
topWaterLayerIni = global_05min/initialConditions/non-natural/1999/topWaterLayer_grassland_1999-12-31.nc
storUppIni       = global_05min/initialConditions/non-natural/1999/storUpp_grassland_1999-12-31.nc
storLowIni       = global_05min/initialConditions/non-natural/1999/storLow_grassland_1999-12-31.nc
interflowIni     = global_05min/initialConditions/non-natural/1999/interflow_grassland_1999-12-31.nc


[irrPaddyOptions]

name = irrPaddy
debugWaterBalance = True

# snow module properties
snowModuleType      =  Simple
freezingT           =  0.0
degreeDayFactor     =  0.0025
snowWaterHoldingCap =  0.1
refreezingCoeff     =  0.05
#
landCoverMapsNC  = None
# If NC file is not provided, we have to provide the following values:
fracVegCover     = global_05min/landSurface/landCover/irrPaddy/fractionPaddy.nc
minSoilDepthFrac = global_30min/landSurface/landCover/irrPaddy/minf_paddy_permafrost.nc
maxSoilDepthFrac = global_30min/landSurface/landCover/irrPaddy/maxf_paddy.nc
rootFraction1    = global_30min/landSurface/landCover/irrPaddy/rfrac1_paddy.nc
rootFraction2    = global_30min/landSurface/landCover/irrPaddy/rfrac2_paddy.nc
maxRootDepth     = 0.5
#
# Parameters for the Arno's scheme:
arnoBeta = None
# If arnoBeta is defined, the soil water capacity distribution is based on this.
# If arnoBeta is NOT defined, maxSoilDepthFrac must be defined such that arnoBeta will be calculated based on maxSoilDepthFrac and minSoilDepthFrac.
#
# other paramater values
minTopWaterLayer = 0.05
minCropKC        = 0.2
cropDeplFactor   = 0.2
minInterceptCap  = 0.0002

cropCoefficientNC = global_30min/landSurface/landCover/irrPaddy/Global_CropCoefficientKc-IrrPaddy_30min.nc

# initial conditions:
interceptStorIni = global_05min/initialConditions/non-natural/1999/interceptStor_irrPaddy_1999-12-31.nc
snowCoverSWEIni  = global_05min/initialConditions/non-natural/1999/snowCoverSWE_irrPaddy_1999-12-31.nc
snowFreeWaterIni = global_05min/initialConditions/non-natural/1999/snowFreeWater_irrPaddy_1999-12-31.nc
topWaterLayerIni = global_05min/initialConditions/non-natural/1999/topWaterLayer_irrPaddy_1999-12-31.nc
storUppIni       = global_05min/initialConditions/non-natural/1999/storUpp_irrPaddy_1999-12-31.nc
storLowIni       = global_05min/initialConditions/non-natural/1999/storLow_irrPaddy_1999-12-31.nc
interflowIni     = global_05min/initialConditions/non-natural/1999/interflow_irrPaddy_1999-12-31.nc


[irrNonPaddyOptions]

name = irrNonPaddy
debugWaterBalance = True

# snow module properties
snowModuleType      =  Simple
freezingT           =  0.0
degreeDayFactor     =  0.0025
snowWaterHoldingCap =  0.1
refreezingCoeff     =  0.05
#
landCoverMapsNC  = None
# If NC file is not provided, we have to provide the following values:
fracVegCover     = global_05min/landSurface/landCover/irrNonPaddy/fractionNonPaddy.nc
minSoilDepthFrac = global_30min/landSurface/landCover/irrNonPaddy/minf_nonpaddy_permafrost.nc
maxSoilDepthFrac = global_30min/landSurface/landCover/irrNonPaddy/maxf_nonpaddy.nc
rootFraction1    = global_30min/landSurface/landCover/irrNonPaddy/rfrac1_nonpaddy.nc
rootFraction2    = global_30min/landSurface/landCover/irrNonPaddy/rfrac2_nonpaddy.nc
maxRootDepth     = 1.0
#
# Parameters for the Arno's scheme:
arnoBeta = None
# If arnoBeta is defined, the soil water capacity distribution is based on this.
# If arnoBeta is NOT defined, maxSoilDepthFrac must be defined such that arnoBeta will be calculated based on maxSoilDepthFrac and minSoilDepthFrac.
#
# other paramater values
minTopWaterLayer = 0.0
minCropKC        = 0.2
cropDeplFactor   = 0.5
minInterceptCap  = 0.0002

cropCoefficientNC = global_30min/landSurface/landCover/irrNonPaddy/Global_CropCoefficientKc-IrrNonPaddy_30min.nc

# initial conditions:
interceptStorIni = global_05min/initialConditions/non-natural/1999/interceptStor_irrNonPaddy_1999-12-31.nc
snowCoverSWEIni  = global_05min/initialConditions/non-natural/1999/snowCoverSWE_irrNonPaddy_1999-12-31.nc
snowFreeWaterIni = global_05min/initialConditions/non-natural/1999/snowFreeWater_irrNonPaddy_1999-12-31.nc
topWaterLayerIni = global_05min/initialConditions/non-natural/1999/topWaterLayer_irrNonPaddy_1999-12-31.nc
storUppIni       = global_05min/initialConditions/non-natural/1999/storUpp_irrNonPaddy_1999-12-31.nc
storLowIni       = global_05min/initialConditions/non-natural/1999/storLow_irrNonPaddy_1999-12-31.nc
interflowIni     = global_05min/initialConditions/non-natural/1999/interflow_irrNonPaddy_1999-12-31.nc




[groundwaterOptions]

debugWaterBalance = True

#~ groundwaterPropertiesNC = global_05min/groundwater/properties/groundwaterProperties5ArcMin.nc
#~ # The file will containspecificYield (m3.m-3), kSatAquifer, recessionCoeff (day-1)
#~ #
#~ # - minimum value for groundwater recession coefficient (day-1) 
#~ minRecessionCoeff = 1.0e-4

#~ # some options for constraining groundwater abstraction
#~ limitFossilGroundWaterAbstraction      = True
#~ estimateOfRenewableGroundwaterCapacity = 0.0
#~ estimateOfTotalGroundwaterThickness    = global_05min/groundwater/aquifer_thickness_estimate/thickness_05min.nc
#~ # minimum and maximum total groundwater thickness 
#~ minimumTotalGroundwaterThickness       = 100.
#~ maximumTotalGroundwaterThickness       = None

groundwaterPropertiesNC = None
specificYield  = /scratch/depfg/sutan101/data/pcrglobwb_input_arise/develop/global_05min/groundwater/properties/version_2021-02-XX/specific_yield_aquifer_05min.map
kSatAquifer    = /scratch/depfg/sutan101/data/pcrglobwb_input_arise/develop/global_05min/groundwater/properties/version_2021-02-XX/k_conductivity_aquifer_05min.map
recessionCoeff = /scratch/depfg/sutan101/data/pcrglobwb_input_arise/develop/global_05min/groundwater/properties/version_2021-02-XX/recession_coefficient_05min.map

# minimum value for groundwater recession coefficient (day-1) 
# - about 11 years
minRecessionCoeff = 0.00025
#~ # - about 27 years
#~ minRecessionCoeff = 1.0e-4

# some options for constraining groundwater abstraction
limitFossilGroundWaterAbstraction      = True
estimateOfRenewableGroundwaterCapacity = 0.0
estimateOfTotalGroundwaterThickness    = /scratch/depfg/sutan101/data/pcrglobwb_input_arise/develop/global_05min/groundwater/aquifer_thickness_estimate/version_2020-09-XX/thickness_05min_remapbil_to_30sec_filled_with_pcr_correct_lat_upscaled_back_to_05min_with_remapcon.nc
# minimum and maximum total groundwater thickness 
minimumTotalGroundwaterThickness       = 100.
maximumTotalGroundwaterThickness       = None


# annual pumping capacity for each region (unit: billion cubic meter per year), should be given in a netcdf file
pumpingCapacityNC = global_30min/waterUse/groundwater_pumping_capacity/regional_abstraction_limit.nc

# initial conditions:
storGroundwaterIni                        = global_05min/initialConditions/non-natural/1999/storGroundwater_1999-12-31.nc
storGroundwaterFossilIni                  = global_05min/initialConditions/non-natural/1999/storGroundwaterFossil_1999-12-31.nc
#
# additional initial conditions for pumping behaviors
avgNonFossilGroundwaterAllocationLongIni  = global_05min/initialConditions/non-natural/1999/avgNonFossilGroundwaterAllocationLong_1999-12-31.nc
avgNonFossilGroundwaterAllocationShortIni = global_05min/initialConditions/non-natural/1999/avgNonFossilGroundwaterAllocationShort_1999-12-31.nc
avgTotalGroundwaterAbstractionIni         = global_05min/initialConditions/non-natural/1999/avgTotalGroundwaterAbstraction_1999-12-31.nc
avgTotalGroundwaterAllocationLongIni      = global_05min/initialConditions/non-natural/1999/avgTotalGroundwaterAllocationLong_1999-12-31.nc
avgTotalGroundwaterAllocationShortIni     = global_05min/initialConditions/non-natural/1999/avgTotalGroundwaterAllocationShort_1999-12-31.nc
#
# additional initial conditions (needed only for MODFLOW run) 
relativeGroundwaterHeadIni                = global_05min/initialConditions/non-natural/1999/relativeGroundwaterHead_1999-12-31.nc
baseflowIni                               = global_05min/initialConditions/non-natural/1999/baseflow_1999-12-31.nc

# zonal IDs (scale) at which zonal allocation of groundwater is performed  
allocationSegmentsForGroundwater = global_05min/waterUse/abstraction_zones/abstraction_zones_30min_05min.nc



[routingOptions]

debugWaterBalance = True

#~ # drainage direction map
#~ lddMap      = global_05min/routing/ldd_and_cell_area/lddsound_05min.nc

#~ # cell area (unit: m2)
#~ cellAreaMap = global_05min/routing/ldd_and_cell_area/cellsize05min.correct.nc


lddMap           = /scratch/depfg/sutan101/data/pcrglobwb_input_arise/develop/global_05min/routing/surface_water_bodies/version_20210330/lddsound_05min_version_20210330.map
cellAreaMap      = /scratch/depfg/sutan101/data/pcrglobwb_input_arise/develop/global_05min/routing/cell_area/cdo_gridarea_clone_global_05min_correct_lats.nc



# routing method:
routingMethod = accuTravelTime

# manning coefficient
manningsN   = 0.04

# Option for flood plain simulation
dynamicFloodPlain = True

# manning coefficient for floodplain
floodplainManningsN = 0.07


#~ # channel gradient
#~ gradient             = global_05min/routing/channel_properties/channel_gradient.nc

#~ # constant channel depth 
#~ constantChannelDepth = global_05min/routing/channel_properties/bankfull_depth.nc

#~ # constant channel width (optional)
#~ constantChannelWidth = global_05min/routing/channel_properties/bankfull_width.nc

#~ # minimum channel width (optional)
#~ minimumChannelWidth  = global_05min/routing/channel_properties/bankfull_width.nc

#~ # channel properties for flooding
#~ bankfullCapacity     = None
#~ # - If None, it will be estimated from (bankfull) channel depth (m) and width (m) 


# channel gradient
gradient             = /scratch/depfg/sutan101/data/pcrglobwb_input_arise/develop/global_05min/routing/channel_properties/version_20210401_from_03sec_merit_dem/maps_covered_with_zero/gradient_channel_parameters_5min_april_2021_global_covered_with_zero.nc

# constant channel depth 
constantChannelDepth = /scratch/depfg/sutan101/data/pcrglobwb_input_arise/develop/global_05min/routing/channel_properties/version_20210401_from_03sec_merit_dem/maps_covered_with_zero/bankfull_depth_channel_parameters_5min_april_2021_global_covered_with_zero.nc

# constant channel width (optional)
constantChannelWidth = /scratch/depfg/sutan101/data/pcrglobwb_input_arise/develop/global_05min/routing/channel_properties/version_20210401_from_03sec_merit_dem/maps_covered_with_zero/bankfull_width_channel_parameters_5min_april_2021_global_covered_with_zero.nc

# minimum channel width (optional)
minimumChannelWidth  = /scratch/depfg/sutan101/data/pcrglobwb_input_arise/develop/global_05min/routing/channel_properties/version_20210401_from_03sec_merit_dem/maps_covered_with_zero/bankfull_width_channel_parameters_5min_april_2021_global_covered_with_zero.nc

# channel properties for flooding
bankfullCapacity     = None
# - If None, it will be estimated from (bankfull) channel depth (m) and width (m) 


# files for relative elevation (above minimum dem) 

#~ relativeElevationFiles  = global_05min/routing/channel_properties/dzRel%04d.nc
#~ relativeElevationLevels = 0.0, 0.01, 0.05, 0.10, 0.20, 0.30, 0.40, 0.50, 0.60, 0.70, 0.80, 0.90, 1.00

relativeElevationFiles     = /scratch/depfg/sutan101/data/pcrglobwb_input_arise/develop/global_05min/landSurface/topography/version_202104XX_from_merit_dem/maps_covered_with_zero/dzRel%04d_topography_parameters_5min_april_2021_global_covered_with_zero.nc
relativeElevationLevels    = 0.0, 0.01, 0.05, 0.10, 0.20, 0.30, 0.40, 0.50, 0.60, 0.70, 0.80, 0.90, 1.00


# composite crop factors for WaterBodies: 
cropCoefficientWaterNC = global_30min/routing/kc_surface_water/cropCoefficientForOpenWater.nc
minCropWaterKC         = 1.00


# lake and reservoir parameters
#~ waterBodyInputNC       = global_05min/routing/surface_water_bodies/waterBodies5ArcMin.nc
#~ onlyNaturalWaterBodies = False

onlyNaturalWaterBodies    = False