[globalOptions]

# Set the pcrglobwb output directory in an absolute path.
outputDir   = /scratch-shared/edwinhs/pcrglobwb2_output_africa/tanzania_era-5-land_pm-monthly-30min-downscaling_soil-dsmw-30sec/2000/

# Set the input directory map in an absolute path. 
# - The input forcing and parameter directories and files will be relative to this.
inputDir    = /scratch-shared/edwinswt/data/pcrglobwb2_input_arise/develop/pcrglobwb2_input/

# Map of clone (must be provided in PCRaster maps)
# - Spatial resolution and coverage are based on this map:
#~ cloneMap = global_05min/cloneMaps/clone_global_05min.map
#~ cloneMap = global_05min/cloneMaps/RhineMeuse05min.clone.map
#~ cloneMap = global_30sec/cloneMaps/africa/africa_clone_30sec.map
#~ cloneMap = global_30sec/cloneMaps/africa/small_repr_africa_clone_30sec.map
cloneMap    = global_30sec/cloneMaps/ghana_tanzania_uganda_zimbabwe/clone_tanzania_194_basin.map

# The area/landmask of interest:
# If None, area/landmask is limited for cells with ldd value. 
landmask    = global_30sec/cloneMaps/ghana_tanzania_uganda_zimbabwe/mask_tanzania_194_basin.map
#~ landmask = None


# netcdf attributes for output files:
institution = Department of Physical Geography, Utrecht University
title       = PCR-GLOBWB 2 output (not coupled to MODFLOW), with human factors (non-natural)
description = by Edwin H. Sutanudjaja (contact: e.h.sutanudjaja@uu.nl), PCR-GLOBWB run with human factors (non-natural) at 30 arcsec resolution


startTime = 2000-01-01
endTime   = 2000-12-31
# Format: YYYY-MM-DD ; The model runs on daily time step.


# spinning up options:
maxSpinUpsInYears = 3
minConvForSoilSto = 0.0
minConvForGwatSto = 0.0
minConvForChanSto = 0.0
minConvForTotlSto = 0.0

# option/directory for saving the spin-up directory 
spinUpOutputDir = True


[meteoOptions]

#~ # Set the forcing temperature and precipitation files (relative to inputDir)
#~ precipitationNC = global_30min/meteo/forcing/daily_precipitation_cru_era-interim_1979_to_2010.nc
#~ temperatureNC   = global_30min/meteo/forcing/daily_temperature_cru_era-interim_1979_to_2010.nc
#~ 
#~ # Method to calculate referencePotETP (reference potential evaporation+transpiration)
#~ # options are "Hamon" and "Input" ; If "Input", the netcdf input file must be given:
#~ referenceETPotMethod = Input
#~ refETPotFileNC = global_30min/meteo/forcing/daily_referencePotET_cru_era-interim_1979_to_2010.nc

#~ # Set the forcing temperature and precipitation files (relative to inputDir)
#~ precipitationNC = https://opendap.4tu.nl/thredds/dodsC/data2/pcrglobwb/version_2019_11_beta/pcrglobwb2_input/global_30min/meteo/forcing/daily_precipitation_cru_era-interim_1979_to_2010.nc                 
#~ temperatureNC   = https://opendap.4tu.nl/thredds/dodsC/data2/pcrglobwb/version_2019_11_beta/pcrglobwb2_input/global_30min/meteo/forcing/daily_temperature_cru_era-interim_1979_to_2010.nc
#~ 
#~ # Method to calculate referencePotETP (reference potential evaporation+transpiration)
#~ # options are "Hamon" and "Input" ; If "Input", the netcdf input file must be given:
#~ referenceETPotMethod = Input
#~ refETPotFileNC = https://opendap.4tu.nl/thredds/dodsC/data2/pcrglobwb/version_2019_11_beta/pcrglobwb2_input/global_30min/meteo/forcing/daily_referencePotET_cru_era-interim_1979_to_2010.nc

# Set the forcing temperature and precipitation files (relative to inputDir)
precipitationNC = /scratch-shared/edwinhs/meteo_arise/tanzania/version_2020-03-12_test-edwin-only-2000/era5-land/150_arcsec/tanzania_era5-land_total-preci_2000-2000/tanzania_era5-land_total-preci_2000-2000_rempacon-150-arcsec_daily.nc
temperatureNC   = /scratch-shared/edwinhs/meteo_arise/tanzania/version_2020-03-12_test-edwin-only-2000/era5-land/150_arcsec/tanzania_era5-land_t2m-average_2000-2000/tanzania_era5-land_t2m-average_2000-2000_rempacon-150-arcsec_daily.nc

# Method to calculate referencePotETP (reference potential evaporation+transpiration)
# options are "Hamon" and "Input" ; If "Input", the netcdf input file must be given:
referenceETPotMethod = Input
refETPotFileNC = /scratch-shared/edwinhs/process_pm/out/test.nc

# variable names in the forcing files (optional)
precipitationVariableName = tp
temperatureVariableName   = t2m
referenceEPotVariableName = potentialEvaporation
# conversion constants and factors to correct forcing values (optional) so that the units are in m.day-1 and degree Celcius                                                                                                           
precipitationConstant = 0.0
precipitationFactor   = 1.0
temperatureConstant   = -273.15
temperatureFactor     = 1.0
referenceEPotConstant = 0.0
referenceEPotFactor   = 1.0


[meteoDownscalingOptions]
                                                                                                                                        
downscalePrecipitation  = False                                                                                                                                   
downscaleTemperature    = False                                                                                                                                  
#~ downscaleReferenceETPot = False                                                                                                                                   
downscaleReferenceETPot = True                                                                                                                                   
   
# downscaling (based on the digital elevation model):                                                                                                            
highResolutionDEM = global_30sec/landSurface/topography/global_merit_dem_30sec/global_merit_dem_30sec.map

# The downscaling will be performed by providing the "cellIds" (meteoDownscaleIds) of lower resolution cells.                                                    
meteoDownscaleIds = global_05min/meteo/downscaling_from_30min/uniqueIds_30min.nc                                                                      
   
# lapse rates:                                                                                                                                                   
temperLapseRateNC = global_05min/meteo/downscaling_from_30min/temperature_slope.nc                                                                     
precipLapseRateNC = global_05min/meteo/downscaling_from_30min/precipitation_slope.nc                                                                   
                                                                                                                                                                 
# downscaling criteria (TODO: remove these):                                                                                                                     
temperatCorrelNC  = global_05min/meteo/downscaling_from_30min/temperature_correl.nc                                                                     
precipitCorrelNC  = global_05min/meteo/downscaling_from_30min/precipitation_correl.nc                                                                   
                                                                                                                                                                 
# windows length (unit: arc-degree) for smoothing/averaging forcing data (not recommended):                                                                      
smoothingWindowsLength = 0


[landSurfaceOptions]

debugWaterBalance = True

numberOfUpperSoilLayers = 2

# topography parameters
# - they are used for all land cover types, unless they are are defined in certain land cover type options 
#   (e.g. different/various soil types for agriculture areas)  
topographyNC    = global_05min/landSurface/topography/topography_parameters_5_arcmin_october_2015.nc
#~ topographyNC = None
#~ # - if topographyNC = None, the following topography parameters will be used
#~ tanslope      = 
#~ slopeLength   =
#~ orographyBeta =


# soil parameters
# - they are used for all land cover types, unless they are are defined in certain land cover type options 
#   (e.g. different/various soil types for agriculture areas)  
soilPropertiesNC = None
# - if soilPropertiesNC = None, the following soil parameters will be used
firstStorDepth       = /scratch-shared/edwinhs/soil_dsmw/source_from_speedy-rapid/soil/v06Jul2013/West_SoilDepth_permafrost-LAYER1_DSMW_30sec.map
secondStorDepth      = /scratch-shared/edwinhs/soil_dsmw/source_from_speedy-rapid/soil/v06Jul2013/West_SoilDepth_permafrost-LAYER2_DSMW_30sec.map
soilWaterStorageCap1 = /scratch-shared/edwinhs/soil_dsmw/source_from_speedy-rapid/soil/v06Jul2013/West_StorageCapacity_permafrost-LAYER1_DSMW_30sec.map
soilWaterStorageCap2 = /scratch-shared/edwinhs/soil_dsmw/source_from_speedy-rapid/soil/v06Jul2013/West_StorageCapacity_permafrost-LAYER2_DSMW_30sec.map
airEntryValue1       = /scratch-shared/edwinhs/soil_dsmw/source_from_speedy-rapid/soil/v06Jul2013/West_AirEntryValue-LAYER1_DSMW_30sec.map
airEntryValue2       = /scratch-shared/edwinhs/soil_dsmw/source_from_speedy-rapid/soil/v06Jul2013/West_AirEntryValue-LAYER2_DSMW_30sec.map
poreSizeBeta1        = /scratch-shared/edwinhs/soil_dsmw/source_from_speedy-rapid/soil/v06Jul2013/West_ShapeFactor-LAYER1_DSMW_30sec.map
poreSizeBeta2        = /scratch-shared/edwinhs/soil_dsmw/source_from_speedy-rapid/soil/v06Jul2013/West_ShapeFactor-LAYER2_DSMW_30sec.map
resVolWC1            = /scratch-shared/edwinhs/soil_dsmw/source_from_speedy-rapid/soil/v06Jul2013/West_ThetaRes-LAYER1_DSMW_30sec.map
resVolWC2            = /scratch-shared/edwinhs/soil_dsmw/source_from_speedy-rapid/soil/v06Jul2013/West_ThetaRes-LAYER2_DSMW_30sec.map
satVolWC1            = /scratch-shared/edwinhs/soil_dsmw/source_from_speedy-rapid/soil/v06Jul2013/West_ThetaSat-LAYER1_DSMW_30sec.map
satVolWC2            = /scratch-shared/edwinhs/soil_dsmw/source_from_speedy-rapid/soil/v06Jul2013/West_ThetaSat-LAYER2_DSMW_30sec.map
KSat1                = /scratch-shared/edwinhs/soil_dsmw/source_from_speedy-rapid/soil/v06Jul2013/West_SatHydConduct-LAYER1_DSMW_30sec.map
KSat2                = /scratch-shared/edwinhs/soil_dsmw/source_from_speedy-rapid/soil/v06Jul2013/West_SatHydConduct-LAYER2_DSMW_30sec.map
percolationImp       = /scratch-shared/edwinhs/soil_dsmw/source_from_speedy-rapid/soil/v06Jul2013/West_ImpededDrainage_permafrost-ALL_DSMW_30sec.map

includeIrrigation = True

# netcdf time series for historical expansion of irrigation areas (unit: hectares). 
# Note: The resolution of this map must be consisten with the resolution of cellArea. 
historicalIrrigationArea = global_05min/waterUse/irrigation/irrigated_areas/irrigationArea05ArcMin.nc

# a pcraster map/value defining irrigation efficiency (dimensionless) - optional
irrigationEfficiency     = global_30min/waterUse/irrigation/irrigation_efficiency/efficiency.nc

includeDomesticWaterDemand  = True
includeIndustryWaterDemand  = True
includeLivestockWaterDemand = True

# domestic, industrial and livestock water demand data (unit must be in m.day-1)
domesticWaterDemandFile  = global_05min/waterUse/waterDemand/domestic/domestic_water_demand_version_april_2015.nc
industryWaterDemandFile  = global_05min/waterUse/waterDemand/industry/industry_water_demand_version_april_2015.nc
livestockWaterDemandFile = global_05min/waterUse/waterDemand/livestock/livestock_water_demand_version_april_2015.nc


# desalination water supply (maximum/potential/capacity)
desalinationWater = global_05min/waterUse/desalination/desalination_water_version_april_2015.nc


# zone IDs (scale) at which allocations of groundwater and surface water (as well as desalinated water) are performed  
allocationSegmentsForGroundSurfaceWater    = global_05min/waterUse/abstraction_zones/abstraction_zones_60min_05min.nc

# pcraster maps defining the partitioning of groundwater - surface water source 
#
# - predefined surface water - groundwater partitioning for irrigation demand (e.g. based on Siebert, Global Map of Irrigation Areas version 5)
irrigationSurfaceWaterAbstractionFractionData           = global_05min/waterUse/source_partitioning/surface_water_fraction_for_irrigation/AEI_SWFRAC.nc
# -- quality map
irrigationSurfaceWaterAbstractionFractionDataQuality    = global_05min/waterUse/source_partitioning/surface_water_fraction_for_irrigation/AEI_QUAL.nc
#
# - threshold values defining the preference for surface water source for irrigation purpose
# -- treshold to maximize surface water irrigation use (cells with irrSurfaceWaterAbstractionFraction above this will prioritize irrigation surface water use)
treshold_to_maximize_irrigation_surface_water           = 0.50
# -- treshold to minimize fossil water withdrawal for irrigation (cells with irrSurfaceWaterAbstractionFraction below this have no fossil withdrawal for irrigation)
treshold_to_minimize_fossil_groundwater_irrigation      = 0.70
#
# - predefined surface water - groundwater partitioning for non irrigation demand (e.g. based on McDonald, 2014)
maximumNonIrrigationSurfaceWaterAbstractionFractionData = global_30min/waterUse/source_partitioning/surface_water_fraction_for_non_irrigation/max_city_sw_fraction.nc

# option to skip extrapolation
noParameterExtrapolation = True


[forestOptions]

name = forest
debugWaterBalance = True

# snow module properties
snowModuleType      =  Simple
freezingT           =  0.0
degreeDayFactor     =  0.0025
snowWaterHoldingCap =  0.1
refreezingCoeff     =  0.05

# other paramater values
minTopWaterLayer  = 0.0
minCropKC         = 0.2

cropCoefficientNC = global_05min/landSurface/landCover/naturalTall/cropCoefficientForest.nc
interceptCapNC    = global_05min/landSurface/landCover/naturalTall/interceptCapInputForest.nc
coverFractionNC   = global_05min/landSurface/landCover/naturalTall/coverFractionInputForest.nc

landCoverMapsNC   = None
# If NC file is not provided, we have to provide the following pcraster maps:
fracVegCover      = global_05min/landSurface/landCover/naturalTall/vegf_tall.nc
minSoilDepthFrac  = global_30min/landSurface/landCover/naturalTall/minf_tall_permafrost.nc
maxSoilDepthFrac  = global_30min/landSurface/landCover/naturalTall/maxf_tall.nc
rootFraction1     = global_05min/landSurface/landCover/naturalTall/rfrac1_tall.nc
rootFraction2     = global_05min/landSurface/landCover/naturalTall/rfrac2_tall.nc	
maxRootDepth      = 1.0
# Note: The maxRootDepth is not used for non irrigated land cover type. 	
#
# Parameters for the Arno's scheme:
arnoBeta = None
# If arnoBeta is defined, the soil water capacity distribution is based on this.
# If arnoBeta is NOT defined, maxSoilDepthFrac must be defined such that arnoBeta will be calculated based on maxSoilDepthFrac and minSoilDepthFrac.

# initial conditions:
interceptStorIni = /scratch-shared/edwinswt/data/pcrglobwb2_input_arise/develop/pcrglobwb2_input/tanzania_30sec/initialConditions/version_2020-03-19/states/interceptStor_forest_2000-12-31.map
snowCoverSWEIni  = /scratch-shared/edwinswt/data/pcrglobwb2_input_arise/develop/pcrglobwb2_input/tanzania_30sec/initialConditions/version_2020-03-19/states/snowCoverSWE_forest_2000-12-31.map
snowFreeWaterIni = /scratch-shared/edwinswt/data/pcrglobwb2_input_arise/develop/pcrglobwb2_input/tanzania_30sec/initialConditions/version_2020-03-19/states/snowFreeWater_forest_2000-12-31.map
topWaterLayerIni = /scratch-shared/edwinswt/data/pcrglobwb2_input_arise/develop/pcrglobwb2_input/tanzania_30sec/initialConditions/version_2020-03-19/states/topWaterLayer_forest_2000-12-31.map
storUppIni       = /scratch-shared/edwinswt/data/pcrglobwb2_input_arise/develop/pcrglobwb2_input/tanzania_30sec/initialConditions/version_2020-03-19/states/storUpp_forest_2000-12-31.map
storLowIni       = /scratch-shared/edwinswt/data/pcrglobwb2_input_arise/develop/pcrglobwb2_input/tanzania_30sec/initialConditions/version_2020-03-19/states/storLow_forest_2000-12-31.map
interflowIni     = /scratch-shared/edwinswt/data/pcrglobwb2_input_arise/develop/pcrglobwb2_input/tanzania_30sec/initialConditions/version_2020-03-19/states/interflow_forest_2000-12-31.map

noParameterExtrapolation = True

[grasslandOptions]

name = grassland
debugWaterBalance = True

# snow module properties
snowModuleType      =  Simple
freezingT           =  0.0
degreeDayFactor     =  0.0025
snowWaterHoldingCap =  0.1
refreezingCoeff     =  0.05

# other paramater values
minTopWaterLayer = 0.0
minCropKC        = 0.2

cropCoefficientNC = global_05min/landSurface/landCover/naturalShort/cropCoefficientGrassland.nc
interceptCapNC    = global_05min/landSurface/landCover/naturalShort/interceptCapInputGrassland.nc
coverFractionNC   = global_05min/landSurface/landCover/naturalShort/coverFractionInputGrassland.nc

landCoverMapsNC   = None
# If NC file is not provided, we have to provide the following values:
fracVegCover      = global_05min/landSurface/landCover/naturalShort/vegf_short.nc
minSoilDepthFrac  = global_30min/landSurface/landCover/naturalShort/minf_short_permafrost.nc
maxSoilDepthFrac  = global_30min/landSurface/landCover/naturalShort/maxf_short.nc
rootFraction1     = global_05min/landSurface/landCover/naturalShort/rfrac1_short.nc
rootFraction2     = global_05min/landSurface/landCover/naturalShort/rfrac2_short.nc	
maxRootDepth      = 0.5
# Note: The maxRootDepth is not used for non irrigated land cover type. 	
#
# Parameters for the Arno's scheme:
arnoBeta = None
# If arnoBeta is defined, the soil water capacity distribution is based on this.
# If arnoBeta is NOT defined, maxSoilDepthFrac must be defined such that arnoBeta will be calculated based on maxSoilDepthFrac and minSoilDepthFrac.

# initial conditions:
interceptStorIni = /scratch-shared/edwinswt/data/pcrglobwb2_input_arise/develop/pcrglobwb2_input/tanzania_30sec/initialConditions/version_2020-03-19/states/interceptStor_grassland_2000-12-31.map
snowCoverSWEIni  = /scratch-shared/edwinswt/data/pcrglobwb2_input_arise/develop/pcrglobwb2_input/tanzania_30sec/initialConditions/version_2020-03-19/states/snowCoverSWE_grassland_2000-12-31.map
snowFreeWaterIni = /scratch-shared/edwinswt/data/pcrglobwb2_input_arise/develop/pcrglobwb2_input/tanzania_30sec/initialConditions/version_2020-03-19/states/snowFreeWater_grassland_2000-12-31.map
topWaterLayerIni = /scratch-shared/edwinswt/data/pcrglobwb2_input_arise/develop/pcrglobwb2_input/tanzania_30sec/initialConditions/version_2020-03-19/states/topWaterLayer_grassland_2000-12-31.map
storUppIni       = /scratch-shared/edwinswt/data/pcrglobwb2_input_arise/develop/pcrglobwb2_input/tanzania_30sec/initialConditions/version_2020-03-19/states/storUpp_grassland_2000-12-31.map
storLowIni       = /scratch-shared/edwinswt/data/pcrglobwb2_input_arise/develop/pcrglobwb2_input/tanzania_30sec/initialConditions/version_2020-03-19/states/storLow_grassland_2000-12-31.map
interflowIni     = /scratch-shared/edwinswt/data/pcrglobwb2_input_arise/develop/pcrglobwb2_input/tanzania_30sec/initialConditions/version_2020-03-19/states/interflow_grassland_2000-12-31.map

noParameterExtrapolation = True

[irrPaddyOptions]

name = irrPaddy
debugWaterBalance = True

# snow module properties
snowModuleType      =  Simple
freezingT           =  0.0
degreeDayFactor     =  0.0025
snowWaterHoldingCap =  0.1
refreezingCoeff     =  0.05
#
landCoverMapsNC  = None
# If NC file is not provided, we have to provide the following values:
fracVegCover     = global_05min/landSurface/landCover/irrPaddy/fractionPaddy.nc
minSoilDepthFrac = global_30min/landSurface/landCover/irrPaddy/minf_paddy_permafrost.nc
maxSoilDepthFrac = global_30min/landSurface/landCover/irrPaddy/maxf_paddy.nc
rootFraction1    = global_30min/landSurface/landCover/irrPaddy/rfrac1_paddy.nc
rootFraction2    = global_30min/landSurface/landCover/irrPaddy/rfrac2_paddy.nc
maxRootDepth     = 0.5
#
# Parameters for the Arno's scheme:
arnoBeta = None
# If arnoBeta is defined, the soil water capacity distribution is based on this.
# If arnoBeta is NOT defined, maxSoilDepthFrac must be defined such that arnoBeta will be calculated based on maxSoilDepthFrac and minSoilDepthFrac.
#
# other paramater values
minTopWaterLayer = 0.05
minCropKC        = 0.2
cropDeplFactor   = 0.2
minInterceptCap  = 0.0002

cropCoefficientNC = global_30min/landSurface/landCover/irrPaddy/Global_CropCoefficientKc-IrrPaddy_30min.nc

# initial conditions:
interceptStorIni = /scratch-shared/edwinswt/data/pcrglobwb2_input_arise/develop/pcrglobwb2_input/tanzania_30sec/initialConditions/version_2020-03-19/states/interceptStor_irrPaddy_2000-12-31.map
snowCoverSWEIni  = /scratch-shared/edwinswt/data/pcrglobwb2_input_arise/develop/pcrglobwb2_input/tanzania_30sec/initialConditions/version_2020-03-19/states/snowCoverSWE_irrPaddy_2000-12-31.map
snowFreeWaterIni = /scratch-shared/edwinswt/data/pcrglobwb2_input_arise/develop/pcrglobwb2_input/tanzania_30sec/initialConditions/version_2020-03-19/states/snowFreeWater_irrPaddy_2000-12-31.map
topWaterLayerIni = /scratch-shared/edwinswt/data/pcrglobwb2_input_arise/develop/pcrglobwb2_input/tanzania_30sec/initialConditions/version_2020-03-19/states/topWaterLayer_irrPaddy_2000-12-31.map
storUppIni       = /scratch-shared/edwinswt/data/pcrglobwb2_input_arise/develop/pcrglobwb2_input/tanzania_30sec/initialConditions/version_2020-03-19/states/storUpp_irrPaddy_2000-12-31.map
storLowIni       = /scratch-shared/edwinswt/data/pcrglobwb2_input_arise/develop/pcrglobwb2_input/tanzania_30sec/initialConditions/version_2020-03-19/states/storLow_irrPaddy_2000-12-31.map
interflowIni     = /scratch-shared/edwinswt/data/pcrglobwb2_input_arise/develop/pcrglobwb2_input/tanzania_30sec/initialConditions/version_2020-03-19/states/interflow_irrPaddy_2000-12-31.map

noParameterExtrapolation = True

[irrNonPaddyOptions]

name = irrNonPaddy
debugWaterBalance = True

# snow module properties
snowModuleType      =  Simple
freezingT           =  0.0
degreeDayFactor     =  0.0025
snowWaterHoldingCap =  0.1
refreezingCoeff     =  0.05
#
landCoverMapsNC  = None
# If NC file is not provided, we have to provide the following values:
fracVegCover     = global_05min/landSurface/landCover/irrNonPaddy/fractionNonPaddy.nc
minSoilDepthFrac = global_30min/landSurface/landCover/irrNonPaddy/minf_nonpaddy_permafrost.nc
maxSoilDepthFrac = global_30min/landSurface/landCover/irrNonPaddy/maxf_nonpaddy.nc
rootFraction1    = global_30min/landSurface/landCover/irrNonPaddy/rfrac1_nonpaddy.nc
rootFraction2    = global_30min/landSurface/landCover/irrNonPaddy/rfrac2_nonpaddy.nc
maxRootDepth     = 1.0
#
# Parameters for the Arno's scheme:
arnoBeta = None
# If arnoBeta is defined, the soil water capacity distribution is based on this.
# If arnoBeta is NOT defined, maxSoilDepthFrac must be defined such that arnoBeta will be calculated based on maxSoilDepthFrac and minSoilDepthFrac.
#
# other paramater values
minTopWaterLayer = 0.0
minCropKC        = 0.2
cropDeplFactor   = 0.5
minInterceptCap  = 0.0002

cropCoefficientNC = global_30min/landSurface/landCover/irrNonPaddy/Global_CropCoefficientKc-IrrNonPaddy_30min.nc

# initial conditions:
interceptStorIni = /scratch-shared/edwinswt/data/pcrglobwb2_input_arise/develop/pcrglobwb2_input/tanzania_30sec/initialConditions/version_2020-03-19/states/interceptStor_irrNonPaddy_2000-12-31.map
snowCoverSWEIni  = /scratch-shared/edwinswt/data/pcrglobwb2_input_arise/develop/pcrglobwb2_input/tanzania_30sec/initialConditions/version_2020-03-19/states/snowCoverSWE_irrNonPaddy_2000-12-31.map
snowFreeWaterIni = /scratch-shared/edwinswt/data/pcrglobwb2_input_arise/develop/pcrglobwb2_input/tanzania_30sec/initialConditions/version_2020-03-19/states/snowFreeWater_irrNonPaddy_2000-12-31.map
topWaterLayerIni = /scratch-shared/edwinswt/data/pcrglobwb2_input_arise/develop/pcrglobwb2_input/tanzania_30sec/initialConditions/version_2020-03-19/states/topWaterLayer_irrNonPaddy_2000-12-31.map
storUppIni       = /scratch-shared/edwinswt/data/pcrglobwb2_input_arise/develop/pcrglobwb2_input/tanzania_30sec/initialConditions/version_2020-03-19/states/storUpp_irrNonPaddy_2000-12-31.map
storLowIni       = /scratch-shared/edwinswt/data/pcrglobwb2_input_arise/develop/pcrglobwb2_input/tanzania_30sec/initialConditions/version_2020-03-19/states/storLow_irrNonPaddy_2000-12-31.map
interflowIni     = /scratch-shared/edwinswt/data/pcrglobwb2_input_arise/develop/pcrglobwb2_input/tanzania_30sec/initialConditions/version_2020-03-19/states/interflow_irrNonPaddy_2000-12-31.map

noParameterExtrapolation = True

[groundwaterOptions]

debugWaterBalance = True

groundwaterPropertiesNC = global_05min/groundwater/properties/groundwaterProperties5ArcMin.nc
# The file will containspecificYield (m3.m-3), kSatAquifer, recessionCoeff (day-1)
#
recessionCoeff = global_30sec/groundwater/properties/recession_constant.map
kSatAquifer    = global_30sec/groundwater/properties/conductivity_30sec_adjusted_edwin_m_per_day.map
#
# - minimum value for groundwater recession coefficient (day-1) 
minRecessionCoeff = 1.0e-4

# some options for constraining groundwater abstraction
limitFossilGroundWaterAbstraction      = True
estimateOfRenewableGroundwaterCapacity = 0.0
estimateOfTotalGroundwaterThickness    = global_05min/groundwater/aquifer_thickness_estimate/thickness_05min.nc
# minimum and maximum total groundwater thickness 
minimumTotalGroundwaterThickness       = 100.
maximumTotalGroundwaterThickness       = None

doNotExtrapolateThickness = True
noParameterExtrapolation = True

# annual pumping capacity for each region (unit: billion cubic meter per year), should be given in a netcdf file
pumpingCapacityNC    = global_30min/waterUse/groundwater_pumping_capacity/regional_abstraction_limit.nc

# zonal IDs (scale) at which zonal allocation of groundwater is performed  
allocationSegmentsForGroundwater    = global_05min/waterUse/abstraction_zones/abstraction_zones_30min_05min.nc
#~ allocationSegmentsForGroundwater = False

# initial conditions:
storGroundwaterIni                        = /scratch-shared/edwinswt/data/pcrglobwb2_input_arise/develop/pcrglobwb2_input/tanzania_30sec/initialConditions/version_2020-03-19/states/storGroundwater_2000-12-31.map
storGroundwaterFossilIni                  = /scratch-shared/edwinswt/data/pcrglobwb2_input_arise/develop/pcrglobwb2_input/tanzania_30sec/initialConditions/version_2020-03-19/states/storGroundwaterFossil_2000-12-31.map
#
# additional initial conditions for pumping behaviors
avgNonFossilGroundwaterAllocationLongIni  = /scratch-shared/edwinswt/data/pcrglobwb2_input_arise/develop/pcrglobwb2_input/tanzania_30sec/initialConditions/version_2020-03-19/states/avgNonFossilGroundwaterAllocationLong_2000-12-31.map
avgNonFossilGroundwaterAllocationShortIni = /scratch-shared/edwinswt/data/pcrglobwb2_input_arise/develop/pcrglobwb2_input/tanzania_30sec/initialConditions/version_2020-03-19/states/avgNonFossilGroundwaterAllocationShort_2000-12-31.map
avgTotalGroundwaterAbstractionIni         = /scratch-shared/edwinswt/data/pcrglobwb2_input_arise/develop/pcrglobwb2_input/tanzania_30sec/initialConditions/version_2020-03-19/states/avgTotalGroundwaterAbstraction_2000-12-31.map
avgTotalGroundwaterAllocationLongIni      = /scratch-shared/edwinswt/data/pcrglobwb2_input_arise/develop/pcrglobwb2_input/tanzania_30sec/initialConditions/version_2020-03-19/states/avgTotalGroundwaterAllocationLong_2000-12-31.map
avgTotalGroundwaterAllocationShortIni     = /scratch-shared/edwinswt/data/pcrglobwb2_input_arise/develop/pcrglobwb2_input/tanzania_30sec/initialConditions/version_2020-03-19/states/avgTotalGroundwaterAllocationShort_2000-12-31.map
#
# additional initial conditions (needed only for MODFLOW run) 
relativeGroundwaterHeadIni                = /scratch-shared/edwinswt/data/pcrglobwb2_input_arise/develop/pcrglobwb2_input/tanzania_30sec/initialConditions/version_2020-03-19/states/relativeGroundwaterHead_2000-12-31.map
baseflowIni                               = /scratch-shared/edwinswt/data/pcrglobwb2_input_arise/develop/pcrglobwb2_input/tanzania_30sec/initialConditions/version_2020-03-19/states/baseflow_2000-12-31.map

[routingOptions]

debugWaterBalance = True

# drainage direction map
lddMap      = global_30sec/routing/ldd_and_cell_area/global_hydrosheds_ldd.map

# cell area (unit: m2)
cellAreaMap = global_30sec/routing/ldd_and_cell_area/cellsize30sec.map

# routing method:
routingMethod = accuTravelTime

# manning coefficient
manningsN   = 0.04

# Option for flood plain simulation
dynamicFloodPlain = True

# manning coefficient for floodplain
floodplainManningsN = 0.07


# channel gradient
gradient             = global_30sec/routing/channel_properties/slope_m_per_m_from_global_merit_dem_30sec_landmask.map

# constant channel depth 
constantChannelDepth = global_30sec/routing/channel_properties/channel_depth_from_average_discharge.map

# constant channel width (optional)
constantChannelWidth = global_30sec/routing/channel_properties/channel_width_from_average_discharge.map

# minimum channel width (optional)
minimumChannelWidth  = global_30sec/routing/channel_properties/channel_width_from_average_discharge.map

# channel properties for flooding
bankfullCapacity     = None
# - If None, it will be estimated from (bankfull) channel depth (m) and width (m) 


# files for relative elevation (above minimum dem) 
relativeElevationFiles  = global_05min/routing/channel_properties/dzRel%04d.nc
relativeElevationLevels = 0.0, 0.01, 0.05, 0.10, 0.20, 0.30, 0.40, 0.50, 0.60, 0.70, 0.80, 0.90, 1.00


# composite crop factors for WaterBodies: 
cropCoefficientWaterNC = global_30min/routing/kc_surface_water/cropCoefficientForOpenWater.nc
minCropWaterKC         = 1.00


# lake and reservoir parameters
waterBodyInputNC       = global_05min/routing/surface_water_bodies/waterBodies5ArcMin.nc
onlyNaturalWaterBodies = False


# initial conditions:
waterBodyStorageIni            = /scratch-shared/edwinswt/data/pcrglobwb2_input_arise/develop/pcrglobwb2_input/tanzania_30sec/initialConditions/version_2020-03-19/states/waterBodyStorage_2000-12-31.map