[globalOptions]


# Set the pcrglobwb output directory in an absolute path.
#~ outputDir = /scratch/depfg/sutan101/pcrglobwb_aqueduct_2021_develop/test_rhine-meuse/
outputDir    = MAIN_OUTPUT_DIR


# Set the input directory map in an absolute path . 
# - The input forcing and parameter directories and files will be relative to this.
# - Spatial resolution and coverage are based on this map:

# - on eejit
inputDir     = /scratch/depfg/sutan101/data/pcrglobwb_input_arise/develop/

#~ # - on azure
#~ inputDir  = /datadrive/pcrglobwb_input/data/pcrglobwb_input_arise/develop/


# Map of clone (must be provided in PCRaster maps)
# - Spatial resolution and coverage are based on this map:
#~ cloneMap  = global_05min_from_gmd_paper_input/cloneMaps/RhineMeuse05min.clone.nc
cloneMap     = global_05min_from_gmd_paper_input/cloneMaps/global_parallelization/mask_M%i.map


# The area/landmask of interest:
# If None, area/landmask is limited for cells with ldd value. 
#~ landmask  = None
landmask     = global_05min_from_gmd_paper_input/cloneMaps/global_parallelization/mask_M%i.map


# netcdf attributes for output files:
institution = Department of Physical Geography, Utrecht University
title       = PCR-GLOBWB 2 output (not coupled to MODFLOW), with human factors (non-natural) - development version for the WRI Aqueduct project started in 2021 - MAIN_OUTPUT_DIR
description = by Edwin H. Sutanudjaja (contact: e.h.sutanudjaja@uu.nl), PCR-GLOBWB run with human factors (non-natural) at 5 arcmin resolution


# starting and end dates

startTime    = STARTING_DATE
endTime      = END_DATE


# spinning up options:
maxSpinUpsInYears    = 2
#~ maxSpinUpsInYears = 25
minConvForSoilSto    = 0.0
minConvForGwatSto    = 0.0
minConvForChanSto    = 0.0
minConvForTotlSto    = 0.0

# option/directory for saving the spin-up directory 
spinUpOutputDir = True

# with merging
with_merging    = True
#~ with_merging = False

cloneAreas = Global


[meteoOptions]

# Set the forcing temperature and precipitation files
precipitationNC    = PRECIPITATION_FORCING_FILE
temperatureNC      = TEMPERATURE_FORCING_FILE


# conversion constants and factors to correct forcing values (optional) so that the units are in m.day-1 and degree Celcius                                                                                                           
precipitationConstant    = 0.0
precipitationFactor      = 86.4
temperatureConstant      = -273.15
temperatureFactor        = 1.0


# Method to calculate referencePotETP (reference potential evaporation+transpiration)
#~ referenceETPotMethod = Penman-Monteith
#~ refETPotFileNC       = None


# - test with Hamon
referenceETPotMethod = Hamon


# meteo variables for calculating reference potential evaporation based on Penman-Monteith (optional)
#
# - 10 m wind speed, unit: m.s-1
wind_speed_10m              = WIND_FORCING_FILE
#~ # - if wind_speed_10m is None, it will be estimated from u and v components
#~ wind_speed_10m_u_comp    = None
#~ wind_speed_10m_v_comp    = None
#
# - atmospheric pressure, unit: Pascal
atmospheric_pressure        = PRESSURE_FORCING_FILE
#
# - shortwave (solar) radiation, unit: J.m-2.day-1 (default) or W.m-2
shortwave_radiation_input_in_w_per_m2 = True 
shortwave_radiation  = SHORTWAVE_RADIATION_FORCING_FILE
#
# - relative humidity, unit: 1 
relative_humidity    = RELATIVE_HUMIDITY_FORCING_FILE
#
# - conversion constant for the relative_humidity so that the values ranging from 0 to 1
consta_for_relative_humidity = 0.0                                                                                                      
factor_for_relative_humidity = 0.01 

#~ # option to call the meteo/forcing method only
#~ callMeteoOnly = True
#~ # - TODO: Please check whether this works

# initial conditions:
avgAnnualPrecipitationIni    = 0.0
avgAnnualTemperatureIni      = 0.0
avgAnnualDiurnalDeltaTempIni = 0.0


[meteoDownscalingOptions]
# This section is for a 5 arcmin run, for downscaling meteorological forcing at 30 arcmin to 5 arcmin.  
                                                                                                                                        
downscalePrecipitation  = False                                                                                                                                   
downscaleTemperature    = True                                                                                                                                   
downscaleReferenceETPot = False                                                                                                                                   
   
# downscaling (based on the digital elevation model):                                                                                                            
# The downscaling will be performed by providing the "cellIds" (meteoDownscaleIds) of lower resolution cells.                                                    
meteoDownscaleIds = global_05min_from_gmd_paper_input/meteo/downscaling_from_30min/uniqueIds_30min.nc                                                                      
highResolutionDEM = global_05min/landSurface/topography/version_202104XX_from_merit_dem/maps_covered_with_zero/dem_average_topography_parameters_5min_april_2021_global_covered_with_zero.nc                                                                           
   
# lapse rates:                                                                                                                                                   
temperLapseRateNC = global_05min_from_gmd_paper_input/meteo/downscaling_from_30min/temperature_slope.nc                                                                     
precipLapseRateNC = global_05min_from_gmd_paper_input/meteo/downscaling_from_30min/precipitation_slope.nc                                                                   
                                                                                                                                                                 
# downscaling criteria (TODO: remove these):                                                                                                                     
temperatCorrelNC  = global_05min_from_gmd_paper_input/meteo/downscaling_from_30min/temperature_correl.nc                                                                     
precipitCorrelNC  = global_05min_from_gmd_paper_input/meteo/downscaling_from_30min/precipitation_correl.nc                                                                   
                                                                                                                                                                 
# windows length (unit: arc-degree) for smoothing/averaging forcing data (not recommended):                                                                      
smoothingWindowsLength = 0


[landSurfaceOptions]

debugWaterBalance = True

numberOfUpperSoilLayers = 2

# soil and parameters
# - they are used for all land cover types, unless they are are defined in certain land cover type options 
#   (e.g. different/various soil types for agriculture areas)  
topographyNC     = global_05min/landSurface/topography/version_202104XX_from_merit_dem/maps_covered_with_zero/topography_parameters_5min_april_2021_global_covered_with_zero.nc

# - using soilGrids
soilPropertiesNC        = None
# - if soilPropertiesNC = None, the following soil parameters will be used
firstStorDepth          = global_05min/landSurface/soil/version_2021-05-XX/layerDepth_average_1_global_05arcmin.nc
secondStorDepth         = global_05min/landSurface/soil/version_2021-05-XX/layerDepth_average_2_global_05arcmin.nc
soilWaterStorageCap1    = global_05min/landSurface/soil/version_2021-05-XX/WHC_average_1_global_05arcmin.nc
soilWaterStorageCap2    = global_05min/landSurface/soil/version_2021-05-XX/WHC_average_2_global_05arcmin.nc
airEntryValue1          = global_05min/landSurface/soil/version_2021-05-XX/psiAir_average_1_global_05arcmin.nc
airEntryValue2          = global_05min/landSurface/soil/version_2021-05-XX/psiAir_average_2_global_05arcmin.nc
poreSizeBeta1           = global_05min/landSurface/soil/version_2021-05-XX/BCH_average_1_global_05arcmin.nc
poreSizeBeta2           = global_05min/landSurface/soil/version_2021-05-XX/BCH_average_2_global_05arcmin.nc
resVolWC1               = global_05min/landSurface/soil/version_2021-05-XX/vmcRes_average_1_global_05arcmin.nc
resVolWC2               = global_05min/landSurface/soil/version_2021-05-XX/vmcRes_average_2_global_05arcmin.nc
satVolWC1               = global_05min/landSurface/soil/version_2021-05-XX/vmcSat_average_1_global_05arcmin.nc
satVolWC2               = global_05min/landSurface/soil/version_2021-05-XX/vmcSat_average_2_global_05arcmin.nc
KSat1                   = global_05min/landSurface/soil/version_2021-05-XX/kSat_average_1_global_05arcmin.nc
KSat2                   = global_05min/landSurface/soil/version_2021-05-XX/kSat_average_2_global_05arcmin.nc
					    
percolationImp          = global_05min/landSurface/impeded_drainage/global_05min_impeded_drainage_permafrost_dsmw_correct_lats.nc


# if the following is True, there will be annual changes in the land cover parameters 
# (i.e. fracVegCover, rootFraction1, rootFraction2 and maxRootDepth, as well as arnoBeta, minSoilDepthFrac and maxSoilDepthFrac) 
# that have to defined in the options of each land cover in netcdf files
annualChangesInLandCoverParameters = True
noLandCoverFractionCorrection      = True


includeIrrigation = True

# a pcraster map/value defining irrigation efficiency (dimensionless) - optional
irrigationEfficiency     = global_30min_from_gmd_paper_input/waterUse/irrigation/irrigation_efficiency/efficiency.nc
# TODO: Update this with the ones from GLO1 


includeDomesticWaterDemand  = True
includeIndustryWaterDemand  = True
includeLivestockWaterDemand = True


# domestic, industrial and livestock water demand data (unit must be in m.day-1)
domesticWaterDemandFile  = /scratch/depfg/sutan101/data/water_demand_glo1/05min/historical/domestic_water_demand_1961_to_2014_in_m_per_day_05arcmin.nc
industryWaterDemandFile  = /scratch/depfg/sutan101/data/water_demand_glo1/05min/historical/industrial_water_demand_1961_to_2014_in_m_per_day_05arcmin.nc
livestockWaterDemandFile = /scratch/depfg/sutan101/data/water_demand_glo1/05min/historical/livestock_water_demand_1961_to_2014_in_m_per_day_05arcmin.nc
# TODO: Extend this until 2019 with the GLO1 SSP2 (delta approach)


#~ sutan101@gpu038.cluster:/scratch/depfg/sutan101/data/water_demand_glo1/05min/historical$ ls -lah
#~ total 136G
#~ drwxr-xr-x 3 sutan101 depfg   6 Aug 10 14:16 .
#~ drwxr-xr-x 4 sutan101 depfg   2 Aug 10 13:17 ..
#~ drwxr-xr-x 2 sutan101 depfg   7 Aug 10 14:25 annual_values_1961-2014
#~ -r-xr-xr-- 1 sutan101 depfg 46G Aug 10 13:47 domestic_water_demand_1961_to_2014_in_m_per_day_05arcmin.nc
#~ -r-xr-xr-- 1 sutan101 depfg 46G Aug 10 14:01 industrial_water_demand_1961_to_2014_in_m_per_day_05arcmin.nc
#~ -r-xr-xr-- 1 sutan101 depfg 46G Aug 10 14:16 livestock_water_demand_1961_to_2014_in_m_per_day_05arcmin.nc
#~ -r--r--r-- 1 sutan101 depfg 697 Aug 10 14:16 obtain_water_demand_historical.sh
#~ -rw-r--r-- 1 sutan101 depfg  86 Aug 10 14:16 source.txt


# desalination water supply (maximum/potential/capacity)
desalinationWater = global_05min_from_gmd_paper_input/waterUse/desalination/desalination_water_version_april_2015.nc


# zone IDs (scale) at which allocations of groundwater and surface water (as well as desalinated water) are performed  
allocationSegmentsForGroundSurfaceWater = global_05min_from_gmd_paper_input/waterUse/abstraction_zones/abstraction_zones_60min_05min.nc


# pcraster maps defining the partitioning of groundwater - surface water source 
#
# - predefined surface water - groundwater partitioning for irrigation demand (e.g. based on Siebert, Global Map of Irrigation Areas version 5)
irrigationSurfaceWaterAbstractionFractionData           = global_05min_from_gmd_paper_input/waterUse/source_partitioning/surface_water_fraction_for_irrigation/AEI_SWFRAC.nc
# -- quality map
irrigationSurfaceWaterAbstractionFractionDataQuality    = global_05min_from_gmd_paper_input/waterUse/source_partitioning/surface_water_fraction_for_irrigation/AEI_QUAL.nc
#
# - threshold values defining the preference for surface water source for irrigation purpose
# -- treshold to maximize surface water irrigation use (cells with irrSurfaceWaterAbstractionFraction above this will prioritize irrigation surface water use)
treshold_to_maximize_irrigation_surface_water           = 0.50
# -- treshold to minimize fossil water withdrawal for irrigation (cells with irrSurfaceWaterAbstractionFraction below this have no fossil withdrawal for irrigation)
treshold_to_minimize_fossil_groundwater_irrigation      = 0.70
#
# - predefined surface water - groundwater partitioning for non irrigation demand (e.g. based on McDonald, 2014)
maximumNonIrrigationSurfaceWaterAbstractionFractionData = global_30min_from_gmd_paper_input/waterUse/source_partitioning/surface_water_fraction_for_non_irrigation/max_city_sw_fraction.nc


[forestOptions]

name = forest
debugWaterBalance = True

# snow module properties
snowModuleType      =  Simple
freezingT           =  0.0
degreeDayFactor     =  0.0055
snowWaterHoldingCap =  0.1
refreezingCoeff     =  0.05


landCoverMapsNC   = None
# If NC file is not provided, we have to provide the following pcraster maps:

fracVegCoverNC      = global_05min/landSurface/landCover/version_2021-08-XX/land_cover_fraction_version_2021-08-XX/tall_natural_fraction_1850-2017_annual.nc
# TODO: Extend this until 2019 with the GLO1 SSP2 (delta approach)

minSoilDepthFracNC  = global_05min/landSurface/landCover/version_2021-05-04/minf_tall.map
maxSoilDepthFracNC  = global_05min/landSurface/landCover/version_2021-05-04/maxf_tall.map
rootFraction1NC     = global_05min/landSurface/landCover/version_2021-05-04/rfrac1_tall.map
rootFraction2NC     = global_05min/landSurface/landCover/version_2021-05-04/rfrac2_tall.map
maxRootDepthNC      = 1.0
# Note: The maxRootDepth is not used for non irrigated land cover type. 	
#
# Parameters for the Arno's scheme:
arnoBetaNC = None
# If arnoBeta is defined, the soil water capacity distribution is based on this.
# If arnoBeta is NOT defined, maxSoilDepthFrac must be defined such that arnoBeta will be calculated based on maxSoilDepthFrac and minSoilDepthFrac.


cropCoefficientNC = global_05min/landSurface/landCover/version_2021-05-04/netcdf/tall_crop_coefficient.nc
coverFractionNC   = global_05min/landSurface/landCover/version_2021-05-04/netcdf/tall_cover_fraction.nc
interceptCapNC    = global_05min/landSurface/landCover/version_2021-05-04/netcdf/tall_intercept_capacity.nc


# other paramater values
minTopWaterLayer  = 0.0
minCropKC         = 0.2
minInterceptCap   = 0.0002


# initial conditions:
interceptStorIni = 0.0
snowCoverSWEIni  = 0.0
snowFreeWaterIni = 0.0
topWaterLayerIni = 0.0
storUppIni       = 0.0
storLowIni       = 0.0
interflowIni     = 0.0

noParameterExtrapolation = True


# output files that will be written in the disk in netcdf files:
outDailyTotNC = None
outMonthTotNC = None
outMonthAvgNC = None
outMonthEndNC = fracVegCover


[grasslandOptions]

name = grassland
debugWaterBalance = True

# snow module properties
snowModuleType      =  Simple
freezingT           =  0.0
degreeDayFactor     =  0.0055
snowWaterHoldingCap =  0.1
refreezingCoeff     =  0.05


landCoverMapsNC   = None
# If NC file is not provided, we have to provide the following pcraster maps:

fracVegCoverNC      = global_05min/landSurface/landCover/version_2021-08-XX/land_cover_fraction_version_2021-08-XX/short_natural_fraction_1850-2017_annual.nc
# TODO: Extend this until 2019 with the GLO1 SSP2 (delta approach)

minSoilDepthFracNC  = global_05min/landSurface/landCover/version_2021-05-04/minf_short.map
maxSoilDepthFracNC  = global_05min/landSurface/landCover/version_2021-05-04/maxf_short.map
rootFraction1NC     = global_05min/landSurface/landCover/version_2021-05-04/rfrac1_short.map
rootFraction2NC     = global_05min/landSurface/landCover/version_2021-05-04/rfrac2_short.map
maxRootDepthNC      = 0.5
# Note: The maxRootDepth is not used for non irrigated land cover type. 	
#
# Parameters for the Arno's scheme:
arnoBetaNC = None
# If arnoBeta is defined, the soil water capacity distribution is based on this.
# If arnoBeta is NOT defined, maxSoilDepthFrac must be defined such that arnoBeta will be calculated based on maxSoilDepthFrac and minSoilDepthFrac.


cropCoefficientNC = global_05min/landSurface/landCover/version_2021-05-04/netcdf/short_crop_coefficient.nc
coverFractionNC   = global_05min/landSurface/landCover/version_2021-05-04/netcdf/short_cover_fraction.nc
interceptCapNC    = global_05min/landSurface/landCover/version_2021-05-04/netcdf/short_intercept_capacity.nc


# other paramater values
minTopWaterLayer = 0.0
minCropKC        = 0.2
minInterceptCap  = 0.0002


# initial conditions:
interceptStorIni = 0.0
snowCoverSWEIni  = 0.0
snowFreeWaterIni = 0.0
topWaterLayerIni = 0.0
storUppIni       = 0.0
storLowIni       = 0.0
interflowIni     = 0.0

noParameterExtrapolation = True


# output files that will be written in the disk in netcdf files:
outDailyTotNC = None
outMonthTotNC = None
outMonthAvgNC = None
outMonthEndNC = fracVegCover


[irrPaddyOptions]

name = irrPaddy
debugWaterBalance = True

# snow module properties
snowModuleType      =  Simple
freezingT           =  0.0
degreeDayFactor     =  0.0055
snowWaterHoldingCap =  0.1
refreezingCoeff     =  0.05


landCoverMapsNC  = None
# If NC file is not provided, we have to provide the following values:

fracVegCoverNC     = global_05min/landSurface/landCover/version_2021-08-XX/land_cover_fraction_version_2021-08-XX/ir_rice_fraction_1800-2017_annual.nc
# TODO: Extend this until 2019 with the GLO1 SSP2 (delta approach)

minSoilDepthFracNC = 0.99
maxSoilDepthFracNC = 1.01
rootFraction1NC    = 1.00
rootFraction2NC    = 0.00
maxRootDepthNC     = 0.5
#
# Parameters for the Arno's scheme:
arnoBetaNC = None
# If arnoBeta is defined, the soil water capacity distribution is based on this.
# If arnoBeta is NOT defined, maxSoilDepthFrac must be defined such that arnoBeta will be calculated based on maxSoilDepthFrac and minSoilDepthFrac.
#
# other paramater values
minTopWaterLayer = 0.05
minCropKC        = 0.2
cropDeplFactor   = 0.2
minInterceptCap  = 0.0002


cropCoefficientNC = global_05min/landSurface/landCover/version_2021-08-XX/irrigation_land_cover_properties_version_2021-08-XX/paddy_cropfactor_filled.nc         
coverFractionNC   = global_05min/landSurface/landCover/version_2021-08-XX/irrigation_land_cover_properties_version_2021-08-XX/paddy_groundcover_filled.nc
interceptCapNC    = global_05min/landSurface/landCover/version_2021-08-XX/irrigation_land_cover_properties_version_2021-08-XX/paddy_interceptionstorage_filled.nc        


# initial conditions:
interceptStorIni = 0.0
snowCoverSWEIni  = 0.0
snowFreeWaterIni = 0.0
topWaterLayerIni = 0.0
storUppIni       = 0.0
storLowIni       = 0.0
interflowIni     = 0.0

noParameterExtrapolation = True


# output files that will be written in the disk in netcdf files:
outDailyTotNC = None
outMonthTotNC = None
outMonthAvgNC = None
outMonthEndNC = fracVegCover


[irrNonPaddyOptions]

name = irrNonPaddy
debugWaterBalance = True

# snow module properties
snowModuleType      =  Simple
freezingT           =  0.0
degreeDayFactor     =  0.0055
snowWaterHoldingCap =  0.1
refreezingCoeff     =  0.05


landCoverMapsNC  = None

# If NC file is not provided, we have to provide the following values:
fracVegCoverNC     = global_05min/landSurface/landCover/version_2021-08-XX/land_cover_fraction_version_2021-08-XX/ir_norice_fraction_1800-2017_annual.nc
# TODO: Extend this until 2019 with the GLO1 SSP2 (delta approach)


minSoilDepthFracNC = global_05min/landSurface/landCover/version_2021-08-XX/irrigation_land_cover_properties_version_2021-08-XX/nonpaddy_minSoilDepthFrac_filled.map
maxSoilDepthFracNC = global_05min/landSurface/landCover/version_2021-08-XX/irrigation_land_cover_properties_version_2021-08-XX/nonpaddy_maxSoilDepthFrac_filled.map
rootFraction1NC    = global_05min/landSurface/landCover/version_2021-08-XX/irrigation_land_cover_properties_version_2021-08-XX/nonpaddy_rootfraction_z1_filled.map
rootFraction2NC    = global_05min/landSurface/landCover/version_2021-08-XX/irrigation_land_cover_properties_version_2021-08-XX/nonpaddy_rootfraction_z2_filled.map
maxRootDepthNC     = global_05min/landSurface/landCover/version_2021-08-XX/irrigation_land_cover_properties_version_2021-08-XX/nonpaddy_maxSoilDepth_filled.map
#
# Parameters for the Arno's scheme:
arnoBetaNC = None
# If arnoBeta is defined, the soil water capacity distribution is based on this.
# If arnoBeta is NOT defined, maxSoilDepthFrac must be defined such that arnoBeta will be calculated based on maxSoilDepthFrac and minSoilDepthFrac.
#
# other paramater values
minTopWaterLayer = 0.0
minCropKC        = 0.2
cropDeplFactor   = 0.5
minInterceptCap  = 0.0002


cropCoefficientNC = global_05min/landSurface/landCover/version_2021-08-XX/irrigation_land_cover_properties_version_2021-08-XX/nonpaddy_cropfactor_filled.nc         
coverFractionNC   = global_05min/landSurface/landCover/version_2021-08-XX/irrigation_land_cover_properties_version_2021-08-XX/nonpaddy_groundcover_filled.nc
interceptCapNC    = global_05min/landSurface/landCover/version_2021-08-XX/irrigation_land_cover_properties_version_2021-08-XX/nonpaddy_interceptionstorage_filled.nc        


# initial conditions:
interceptStorIni = 0.0
snowCoverSWEIni  = 0.0
snowFreeWaterIni = 0.0
topWaterLayerIni = 0.0
storUppIni       = 0.0
storLowIni       = 0.0
interflowIni     = 0.0

noParameterExtrapolation = True


# output files that will be written in the disk in netcdf files:
outDailyTotNC = None
outMonthTotNC = None
outMonthAvgNC = None
outMonthEndNC = fracVegCover


[groundwaterOptions]

debugWaterBalance = True

groundwaterPropertiesNC = None
specificYield  = global_05min/groundwater/properties/version_2021-02-XX/specific_yield_aquifer_05min.map
kSatAquifer    = global_05min/groundwater/properties/version_2021-02-XX/k_conductivity_aquifer_05min.map
recessionCoeff = global_05min/groundwater/properties/version_2021-02-XX/recession_coefficient_05min.map


# minimum value for groundwater recession coefficient (day-1) 
# - about 11 years
minRecessionCoeff = 0.00025
#~ # - about 27 years
#~ minRecessionCoeff = 1.0e-4


# some options for constraining groundwater abstraction
limitFossilGroundWaterAbstraction      = True
estimateOfRenewableGroundwaterCapacity = 0.0
estimateOfTotalGroundwaterThickness    = global_05min/groundwater/aquifer_thickness_estimate/version_2020-09-XX/thickness_05min_remapbil_to_30sec_filled_with_pcr_correct_lat_upscaled_back_to_05min_with_remapcon.nc
# minimum and maximum total groundwater thickness 
minimumTotalGroundwaterThickness       = 100.
maximumTotalGroundwaterThickness       = None

# annual pumping capacity for each region (unit: billion cubic meter per year), should be given in a netcdf file
pumpingCapacityNC = global_30min_from_gmd_paper_input/waterUse/groundwater_pumping_capacity/regional_abstraction_limit.nc
# TODO: Extend this until 2019 with the ones from GLO1


# initial conditions:
storGroundwaterIni                        = global_05min_from_gmd_paper_input/initialConditions/non-natural/1978/storGroundwater_1978-12-31.nc
storGroundwaterFossilIni                  = global_05min_from_gmd_paper_input/initialConditions/non-natural/1978/storGroundwaterFossil_1978-12-31.nc
#
# additional initial conditions for pumping behaviors
avgNonFossilGroundwaterAllocationLongIni  = global_05min_from_gmd_paper_input/initialConditions/non-natural/1978/avgNonFossilGroundwaterAllocationLong_1978-12-31.nc
avgNonFossilGroundwaterAllocationShortIni = global_05min_from_gmd_paper_input/initialConditions/non-natural/1978/avgNonFossilGroundwaterAllocationShort_1978-12-31.nc
avgTotalGroundwaterAbstractionIni         = global_05min_from_gmd_paper_input/initialConditions/non-natural/1978/avgTotalGroundwaterAbstraction_1978-12-31.nc
avgTotalGroundwaterAllocationLongIni      = global_05min_from_gmd_paper_input/initialConditions/non-natural/1978/avgTotalGroundwaterAllocationLong_1978-12-31.nc
avgTotalGroundwaterAllocationShortIni     = global_05min_from_gmd_paper_input/initialConditions/non-natural/1978/avgTotalGroundwaterAllocationShort_1978-12-31.nc
#
# additional initial conditions (needed only for MODFLOW run) 
relativeGroundwaterHeadIni                = global_05min_from_gmd_paper_input/initialConditions/non-natural/1978/relativeGroundwaterHead_1978-12-31.nc
baseflowIni                               = global_05min_from_gmd_paper_input/initialConditions/non-natural/1978/baseflow_1978-12-31.nc

# zonal IDs (scale) at which zonal allocation of groundwater is performed  
allocationSegmentsForGroundwater = global_05min_from_gmd_paper_input/waterUse/abstraction_zones/abstraction_zones_30min_05min.nc



[routingOptions]

debugWaterBalance = True

# drainage direction map
lddMap           = global_05min/routing/surface_water_bodies/version_20210330/lddsound_05min_version_20210330.map

# cell area (unit: m2)
cellAreaMap      = global_05min/routing/cell_area/cdo_gridarea_clone_global_05min_correct_lats.nc

# routing method:
routingMethod = accuTravelTime

# manning coefficient
manningsN = 0.04

# Option for flood plain simulation
dynamicFloodPlain = True

# manning coefficient for floodplain
floodplainManningsN = 0.07


# channel gradient
gradient             = global_05min/routing/channel_properties/version_20210401_from_03sec_merit_dem/maps_covered_with_zero/gradient_channel_parameters_5min_april_2021_global_covered_with_zero.nc

# constant channel depth 
constantChannelDepth = global_05min/routing/channel_properties/version_20210401_from_03sec_merit_dem/maps_covered_with_zero/bankfull_depth_channel_parameters_5min_april_2021_global_covered_with_zero.nc

# constant channel width (optional)
constantChannelWidth = global_05min/routing/channel_properties/version_20210401_from_03sec_merit_dem/maps_covered_with_zero/bankfull_width_channel_parameters_5min_april_2021_global_covered_with_zero.nc

# minimum channel width (optional)
minimumChannelWidth  = global_05min/routing/channel_properties/version_20210401_from_03sec_merit_dem/maps_covered_with_zero/bankfull_width_channel_parameters_5min_april_2021_global_covered_with_zero.nc

# channel properties for flooding
bankfullCapacity     = None
# - If None, it will be estimated from (bankfull) channel depth (m) and width (m) 


# files for relative elevation (above minimum dem) 
relativeElevationFiles  = global_05min/landSurface/topography/version_202104XX_from_merit_dem/maps_covered_with_zero/dzRel%04d_topography_parameters_5min_april_2021_global_covered_with_zero.nc
relativeElevationLevels = 0.0, 0.01, 0.05, 0.10, 0.20, 0.30, 0.40, 0.50, 0.60, 0.70, 0.80, 0.90, 1.00


# composite crop factors for WaterBodies: 
cropCoefficientWaterNC = global_30min_from_gmd_paper_input/routing/kc_surface_water/cropCoefficientForOpenWater.nc
minCropWaterKC         = 1.00

# lake and reservoir parameters
onlyNaturalWaterBodies = False
waterBodyInputNC       = global_05min/routing/surface_water_bodies/version_20210330/lakes_and_reservoirs_05min_global_version_20210330.nc


# initial conditions:
waterBodyStorageIni            = global_05min_from_gmd_paper_input/initialConditions/non-natural/1978/waterBodyStorage_1978-12-31.nc
channelStorageIni              = global_05min_from_gmd_paper_input/initialConditions/non-natural/1978/channelStorage_1978-12-31.nc
readAvlChannelStorageIni       = global_05min_from_gmd_paper_input/initialConditions/non-natural/1978/readAvlChannelStorage_1978-12-31.nc
avgDischargeLongIni            = global_05min_from_gmd_paper_input/initialConditions/non-natural/1978/avgDischargeLong_1978-12-31.nc
avgDischargeShortIni           = global_05min_from_gmd_paper_input/initialConditions/non-natural/1978/avgDischargeShort_1978-12-31.nc
m2tDischargeLongIni            = global_05min_from_gmd_paper_input/initialConditions/non-natural/1978/m2tDischargeLong_1978-12-31.nc
avgBaseflowLongIni             = global_05min_from_gmd_paper_input/initialConditions/non-natural/1978/avgBaseflowLong_1978-12-31.nc
riverbedExchangeIni            = global_05min_from_gmd_paper_input/initialConditions/non-natural/1978/riverbedExchange_1978-12-31.nc
#
# initial condition of sub-time step discharge (needed for estimating number of time steps in kinematic wave methods)
subDischargeIni                = global_05min_from_gmd_paper_input/initialConditions/non-natural/1978/subDischarge_1978-12-31.nc
#
avgLakeReservoirInflowShortIni = global_05min_from_gmd_paper_input/initialConditions/non-natural/1978/avgLakeReservoirInflowShort_1978-12-31.nc
avgLakeReservoirOutflowLongIni = global_05min_from_gmd_paper_input/initialConditions/non-natural/1978/avgLakeReservoirOutflowLong_1978-12-31.nc
#
# number of days (timesteps) that have been performed for spinning up initial conditions in the routing module (i.e. channelStorageIni, avgDischargeLongIni, avgDischargeShortIni, etc.)
timestepsToAvgDischargeIni     = global_05min_from_gmd_paper_input/initialConditions/non-natural/1978/timestepsToAvgDischarge_1978-12-31.nc
# Note that: 
# - maximum number of days (timesteps) to calculate long term average flow values (default: 5 years = 5 * 365 days = 1825)
# - maximum number of days (timesteps) to calculate short term average values (default: 1 month = 1 * 30 days = 30)




[reportingOptions]

landmask_for_reporting = global_05min_from_gmd_paper_input/cloneMaps/global_parallelization/mask_M%i.map

# output files that will be written in the disk in netcdf files:
#~ # - daily resolution
#~ outDailyTotNC = discharge,totalRunoff,gwRecharge,totalGroundwaterAbstraction,surfaceWaterStorage,referencePotET