[globalOptions]

# Set the input directory map in an absolute path. 
# - The input forcing and parameter directories will be relative to this.
inputDir  = /projects/0/dfguu/data/hydroworld/

# set the pcrglobwb output directory in an absolute path
outputDir = /scratch-shared/edwinhs/runs_2017_finalizing_4LCs/4LCs_accutraveltime_cru-forcing_CORRECT/natural_spin-up_with_reservoirs/

# Map of clone (must be provided in PCRaster maps)
# - Spatial resolution and coverage are based on this map:
#~ cloneMap = others/RhineMeuse/RhineMeuse30min.clone.map
cloneMap    = others/Global/Global_CloneMap_30min.map

# The area/landmask of interest:
# If None, area/landmask is limited for cells with ldd value. 
landmask = None

# netcdf attributes for output files:
institution = Department of Physical Geography, Utrecht University
title       = PCR-GLOBWB 2 output (not coupled to MODFLOW)
description = by Edwin H. Sutanudjaja (contact: e.h.sutanudjaja@uu.nl) 

startTime = 1958-01-01
endTime   = 1958-12-31
# Format: YYYY-MM-DD ; The current model runs on the daily time step.

# spinning up options:
maxSpinUpsInYears = 45
minConvForSoilSto = 0.0
minConvForGwatSto = 0.0
minConvForChanSto = 0.0
minConvForTotlSto = 0.0

# option/directory for saving the spin-up directory 
spinUpOutputDir = True

# an optional option to include the merging process (needed for parallel runs with/without modflow) 
# - for parallel runs with spin-ups, we should set this to False
with_merging = False

[prefactorOptions]

linear_multiplier_for_refPotET         = 1.0
linear_multiplier_for_degreeDayFactor  = 1.0
linear_multiplier_for_minSoilDepthFrac = 1.0
log_10_multiplier_for_kSat             = 0.0
linear_multiplier_for_storCap          = 1.0
log_10_multiplier_for_recessionCoeff   = 0.0

[meteoOptions]

# Set the forcing temperature and precipitation files (relative to inputDir)
#~ precipitationNC = forcing/CRU-TS3.21/merged_1958_to_2010/CRU-TS3.21_ERA-40_ERA-Interim_daily_precipitation_1958_to_2010.nc
#~ temperatureNC   = forcing/CRU-TS3.21/merged_1958_to_2010/CRU-TS3.21_ERA-40_ERA-Interim_daily_temperature_1958_to_2010.nc
precipitationNC = /scratch/shared/edwinhs/climatology_forcing/cru_ts3.21_era-40_era-interim_1958-1990/climatology_CRU-TS3.21_ERA-40_ERA-Interim_daily_precipitation_1958_to_1990.nc
temperatureNC   = /scratch/shared/edwinhs/climatology_forcing/cru_ts3.21_era-40_era-interim_1958-1990/climatology_CRU-TS3.21_ERA-40_ERA-Interim_daily_temperature_1958_to_1990.nc

# Method to calculate referencePotETP (reference potential evaporation+transpiration)
# options are "Hamon" and "Input" ; If "Input", the netcdf input file must be given:
referenceETPotMethod = Input
#~ refETPotFileNC  = forcing/CRU-TS3.21/merged_1958_to_2010/CRU-TS3.21_ERA-40_ERA-Interim_daily_referencePotET_1958_to_2010.nc
refETPotFileNC  = /scratch/shared/edwinhs/climatology_forcing/cru_ts3.21_era-40_era-interim_1958-1990/climatology_CRU-TS3.21_ERA-40_ERA-Interim_daily_referencePotET_1958_to_1990.nc

[landSurfaceOptions]
debugWaterBalance = True

numberOfUpperSoilLayers = 2

# soil and parameters
# - they are used for all land cover types, unless they are are defined in certain land cover type options 
#   (e.g. different/various soil types for agriculture areas)  
topographyNC     = PCRGLOBWB20/input30min/routing/floodplain_30arcmin_world_final/based_on_daily_runoff/topography_parameters_30_arcmin_october_2015.nc
soilPropertiesNC = PCRGLOBWB20/input30min/landSurface/soil/soilProperties.nc

[forestOptions]

name = forest
debugWaterBalance = True

# snow module properties
snowModuleType      =  Simple
freezingT           =  0.0
degreeDayFactor     =  0.0025
snowWaterHoldingCap =  0.1
refreezingCoeff     =  0.05

# other paramater values
minTopWaterLayer = 0.0
minCropKC        = 0.2

landCoverMapsNC   = PCRGLOBWB20/input30min/landCover/forest/forestProperties.nc

cropCoefficientNC = PCRGLOBWB20/input30min/landCover/forest/Global_CropCoefficientKc-Forest_30min.nc
interceptCapNC    = PCRGLOBWB20/input30min/landCover/forest/interceptCapInputForest366days.nc
coverFractionNC   = PCRGLOBWB20/input30min/landCover/forest/coverFractionInputForest366days.nc

# initial conditions:
interceptStorIni  = PCRGLOBWB20/input30min/initialConditions/twoLayers/2015_06_XX/IWMI_reference_run/states/interceptStor_forest_1958-12-31.map
snowCoverSWEIni   = PCRGLOBWB20/input30min/initialConditions/twoLayers/2015_06_XX/IWMI_reference_run/states/snowCoverSWE_forest_1958-12-31.map
snowFreeWaterIni  = PCRGLOBWB20/input30min/initialConditions/twoLayers/2015_06_XX/IWMI_reference_run/states/snowFreeWater_forest_1958-12-31.map
topWaterLayerIni  = PCRGLOBWB20/input30min/initialConditions/twoLayers/2015_06_XX/IWMI_reference_run/states/topWaterLayer_forest_1958-12-31.map
storUppIni        = PCRGLOBWB20/input30min/initialConditions/twoLayers/2015_06_XX/IWMI_reference_run/states/storUpp_forest_1958-12-31.map
storLowIni        = PCRGLOBWB20/input30min/initialConditions/twoLayers/2015_06_XX/IWMI_reference_run/states/storLow_forest_1958-12-31.map
interflowIni      = PCRGLOBWB20/input30min/initialConditions/twoLayers/2015_06_XX/IWMI_reference_run/states/interflow_forest_1958-12-31.map

[grasslandOptions]

name = grassland
debugWaterBalance = True

# snow module properties
snowModuleType      =  Simple
freezingT           =  0.0
degreeDayFactor     =  0.0025
snowWaterHoldingCap =  0.1
refreezingCoeff     =  0.05

# other paramater values
minTopWaterLayer = 0.0
minCropKC        = 0.2

landCoverMapsNC  = PCRGLOBWB20/input30min/landCover/grassland/grasslandProperties.nc

cropCoefficientNC = PCRGLOBWB20/input30min/landCover/grassland/Global_CropCoefficientKc-Grassland_30min.nc
interceptCapNC    = PCRGLOBWB20/input30min/landCover/grassland/interceptCapInputGrassland366days.nc
coverFractionNC   = PCRGLOBWB20/input30min/landCover/grassland/coverFractionInputGrassland366days.nc

# initial conditions:
interceptStorIni = PCRGLOBWB20/input30min/initialConditions/twoLayers/2015_06_XX/IWMI_reference_run/states/interceptStor_grassland_1958-12-31.map
snowCoverSWEIni  = PCRGLOBWB20/input30min/initialConditions/twoLayers/2015_06_XX/IWMI_reference_run/states/snowCoverSWE_grassland_1958-12-31.map
snowFreeWaterIni = PCRGLOBWB20/input30min/initialConditions/twoLayers/2015_06_XX/IWMI_reference_run/states/snowFreeWater_grassland_1958-12-31.map
topWaterLayerIni = PCRGLOBWB20/input30min/initialConditions/twoLayers/2015_06_XX/IWMI_reference_run/states/topWaterLayer_grassland_1958-12-31.map
storUppIni       = PCRGLOBWB20/input30min/initialConditions/twoLayers/2015_06_XX/IWMI_reference_run/states/storUpp_grassland_1958-12-31.map
storLowIni       = PCRGLOBWB20/input30min/initialConditions/twoLayers/2015_06_XX/IWMI_reference_run/states/storLow_grassland_1958-12-31.map
interflowIni     = PCRGLOBWB20/input30min/initialConditions/twoLayers/2015_06_XX/IWMI_reference_run/states/interflow_grassland_1958-12-31.map

[groundwaterOptions]

debugWaterBalance = True

# a netcdf file containing kSatAquifer (m/day), specificYield (dimensionless) and recessionCoeff (day-1) 
groundwaterPropertiesNC = PCRGLOBWB20/input30min/groundwater/groundwaterProperties.nc

# predefined groundwater recession coefficient (day-1)
minRecessionCoeff = 1.0e-4
recessionCoeff    = PCRGLOBWB20/input30min/groundwater/globalalpha.map
#~ # - If the 'recessionCoeff' is not defined, the linear recession coefficient will be based on the values given in groundwaterPropertiesNC and the following thickness value (unit: m) 
#~ aquiferThicknessForRecessionCoeff = 100.

# predefined river bed conductivity (unit: m.day-1)
riverBedConductivity = PCRGLOBWB20/input30min/groundwater/globalksat_glsg.map
	
# some options for constraining groundwater abstraction
limitFossilGroundWaterAbstraction      = True
estimateOfRenewableGroundwaterCapacity = 0.0
estimateOfTotalGroundwaterThickness    = PCRGLOBWB20/input30min/groundwater/aquifer_properties_2014_september/thickness_30min.map
# minimum and maximum total groundwater thickness 
minimumTotalGroundwaterThickness       = 100.
maximumTotalGroundwaterThickness       = 1000.

# annual pumping capacity for each region (unit: billion cubic meter per year), should be given in a netcdf file
pumpingCapacityNC = PCRGLOBWB20/input30min/groundwater/limit_gw_abstraction_half_arc_degree/design_pumping_capacity/regional_abstraction_limit.nc

# initial conditions:
storGroundwaterIni                        = PCRGLOBWB20/input30min/initialConditions/twoLayers/2015_06_XX/IWMI_reference_run/states/storGroundwater_1958-12-31.map
storGroundwaterFossilIni                  = Maximum
#
# additional initial conditions for pumping behaviors
avgNonFossilGroundwaterAllocationLongIni  = PCRGLOBWB20/input30min/initialConditions/twoLayers/2015_06_XX/IWMI_reference_run/states/avgNonFossilGroundwaterAllocationLong_1958-12-31.map
avgNonFossilGroundwaterAllocationShortIni = PCRGLOBWB20/input30min/initialConditions/twoLayers/2015_06_XX/IWMI_reference_run/states/avgNonFossilGroundwaterAllocationShort_1958-12-31.map
avgTotalGroundwaterAbstractionIni         = PCRGLOBWB20/input30min/initialConditions/twoLayers/2015_06_XX/IWMI_reference_run/states/avgTotalGroundwaterAbstraction_1958-12-31.map
avgTotalGroundwaterAllocationLongIni      = PCRGLOBWB20/input30min/initialConditions/twoLayers/2015_06_XX/IWMI_reference_run/states/avgTotalGroundwaterAllocationLong_1958-12-31.map
avgTotalGroundwaterAllocationShortIni     = PCRGLOBWB20/input30min/initialConditions/twoLayers/2015_06_XX/IWMI_reference_run/states/avgTotalGroundwaterAllocationShort_1958-12-31.map
#
#~ # additional initial conditions for MODFLOW run 
#~ relativeGroundwaterHeadIni             = PCRGLOBWB20/input30min/initialConditions/twoLayers/2015_06_XX/IWMI_reference_run/states/relativeGroundwaterHead_1958-12-31.map
#~ baseflowIni                            = PCRGLOBWB20/input30min/initialConditions/twoLayers/2015_06_XX/IWMI_reference_run/states/baseflow_1958-12-31.map

# assumption for the minimum transmissivity value (unit: m2/day) that can be extracted (via capillary rise and/or groundwater abstraction) 
minTransimissivityForProductiveAquifer = 50.0
# - if None, abstraction and/or capillary rise can always occur everywhere and unlimited
# - TODO: Shall we also defined the minimum value for storage coefficient?

[routingOptions]

debugWaterBalance = True

lddMap      = PCRGLOBWB20/input30min/routing/lddsound_30min.map
cellAreaMap = PCRGLOBWB20/input30min/routing/cellarea30min.map
#~ gradient = PCRGLOBWB20/input30min/routing/Global_ChannelGradient-RVB_30min.map
gradient    = PCRGLOBWB20/input30min/routing/floodplain_30arcmin_world_final/based_on_daily_runoff/map/channel_gradient.map

# manning coefficient
manningsN   = 0.04

# manning coefficient for floodplain
floodplainManningsN = 0.07

# routing method: (options are kinematicWave, simplifiedKinematicWave and accuTravelTime)
routingMethod = accuTravelTime
#~ routingMethod = kinematicWave

# Option for flood plain simulation
dynamicFloodPlain = True

# constant channel width (optional)
#~ constantChannelWidth = None
constantChannelWidth    = PCRGLOBWB20/input30min/routing/floodplain_30arcmin_world_final/based_on_daily_runoff/map/bankfull_width.map

# minimum channel width (optional)
#~ minimumChannelWidth  = None
minimumChannelWidth     = PCRGLOBWB20/input30min/routing/floodplain_30arcmin_world_final/based_on_daily_runoff/map/bankfull_width.map

# constant channel depth 
constantChannelDepth    = PCRGLOBWB20/input30min/routing/floodplain_30arcmin_world_final/based_on_daily_runoff/map/bankfull_depth.map

# files for relative elevation (above minimum dem) 
relativeElevationFiles  = PCRGLOBWB20/input30min/routing/floodplain_30arcmin_world_final/based_on_daily_runoff/map/dzRel%04d.map
relativeElevationLevels = 0.0, 0.01, 0.05, 0.10, 0.20, 0.30, 0.40, 0.50, 0.60, 0.70, 0.80, 0.90, 1.00
# TODO: Define a netcdf file 

# Channel properties for flooding
bankfullCapacity = None
# - If None, it will be estimated from (bankfull) channel depth (m) and width (m) 

# lake and reservoir parameters
waterBodyInputNC = PCRGLOBWB20/input30min/routing/reservoirs/fromRensJune2013/reservoirparameterization/waterBodies30min.nc
onlyNaturalWaterBodies = False

# composite crop factors for WaterBodies: 
cropCoefficientWaterNC = PCRGLOBWB20/input30min/routing/cropCoefficientForOpenWater.nc
minCropWaterKC         = 1.00

# number of days (timesteps) that have been performed for spinning up initial conditions in the routing module (i.e. channelStorageIni, avgDischargeLongIni, avgDischargeShortIni, etc.)
timestepsToAvgDischargeIni     = 0.0
# Note that: 
# - maximum number of days (timesteps) to calculate long term average flow values (default: 5 years = 5 * 365 days = 1825)
# - maximum number of days (timesteps) to calculate short term average values (default: 1 month = 1 * 30 days = 30)

# initial conditions:
waterBodyStorageIni            = PCRGLOBWB20/input30min/initialConditions/twoLayers/2015_06_XX/IWMI_reference_run/states/waterBodyStorage_1958-12-31.map
channelStorageIni              = PCRGLOBWB20/input30min/initialConditions/twoLayers/2015_06_XX/IWMI_reference_run/states/channelStorage_1958-12-31.map
readAvlChannelStorageIni       = PCRGLOBWB20/input30min/initialConditions/twoLayers/2015_06_XX/IWMI_reference_run/states/readAvlChannelStorage_1958-12-31.map
avgDischargeLongIni            = PCRGLOBWB20/input30min/initialConditions/twoLayers/2015_06_XX/IWMI_reference_run/states/avgDischargeLong_1958-12-31.map
avgDischargeShortIni           = PCRGLOBWB20/input30min/initialConditions/twoLayers/2015_06_XX/IWMI_reference_run/states/avgDischargeShort_1958-12-31.map
m2tDischargeLongIni            = PCRGLOBWB20/input30min/initialConditions/twoLayers/2015_06_XX/IWMI_reference_run/states/m2tDischargeLong_1958-12-31.map
avgBaseflowLongIni             = PCRGLOBWB20/input30min/initialConditions/twoLayers/2015_06_XX/IWMI_reference_run/states/avgBaseflowLong_1958-12-31.map
riverbedExchangeIni            = PCRGLOBWB20/input30min/initialConditions/twoLayers/2015_06_XX/IWMI_reference_run/states/riverbedExchange_1958-12-31.map
#
# initial condition of sub-time step discharge (needed for estimating number of time steps in kinematic wave methods)
subDischargeIni                = PCRGLOBWB20/input30min/initialConditions/twoLayers/2015_06_XX/IWMI_reference_run/states/subDischarge_1958-12-31.map
#
avgLakeReservoirInflowShortIni = PCRGLOBWB20/input30min/initialConditions/twoLayers/2015_06_XX/IWMI_reference_run/states/avgLakeReservoirInflowShort_1958-12-31.map
avgLakeReservoirOutflowLongIni = PCRGLOBWB20/input30min/initialConditions/twoLayers/2015_06_XX/IWMI_reference_run/states/avgLakeReservoirOutflowLong_1958-12-31.map

[reportingOptions]

# output files that will be written in the disk in netcdf files:
# - daily resolution
outDailyTotNC = discharge,totalRunoff,precipitation,temperature,referencePotET
# - monthly resolution
outMonthAvgNC = discharge,dynamicFracWat,surfaceWaterStorage,interceptStor,snowFreeWater,snowCoverSWE,topWaterLayer,storUppTotal,storLowTotal,storGroundwater,storGroundwaterFossil,totalActiveStorageThickness,totalWaterStorageThickness,satDegUpp,satDegLow,channelStorage,waterBodyStorage,temperature
outMonthEndNC = storGroundwater,storGroundwaterFossil,waterBodyStorage,channelStorage,totalWaterStorageThickness,totalActiveStorageThickness
outMonthTotNC = totalEvaporation,waterBodyActEvaporation,actualET,irrPaddyWaterWithdrawal,irrNonPaddyWaterWithdrawal,domesticWaterWithdrawal,industryWaterWithdrawal,livestockWaterWithdrawal,precipitation,gwRecharge,runoff,totalRunoff,baseflow,directRunoff,interflowTotal,totalGroundwaterAbstraction,desalinationAbstraction,surfaceWaterAbstraction,nonFossilGroundwaterAbstraction,fossilGroundwaterAbstraction,irrGrossDemand,nonIrrGrossDemand,totalGrossDemand,nonIrrWaterConsumption,nonIrrReturnFlow,referencePotET
# - annual resolution
outAnnuaAvgNC = temperature,discharge,surfaceWaterStorage,waterBodyStorage,interceptStor,snowFreeWater,snowCoverSWE,topWaterLayer,storUppTotal,storLowTotal,storGroundwater,storGroundwaterFossil,totalWaterStorageThickness,satDegUpp,satDegLow,channelStorage,waterBodyStorage,fractionWaterBodyEvaporation,fractionTotalEvaporation,fracSurfaceWaterAllocation,fracDesalinatedWaterAllocation
outAnnuaEndNC = surfaceWaterStorage,interceptStor,snowFreeWater,snowCoverSWE,topWaterLayer,storUppTotal,storLowTotal
outAnnuaTotNC = totalEvaporation,precipitation,gwRecharge,totalRunoff,baseflow,desalinationAbstraction,surfaceWaterAbstraction,nonFossilGroundwaterAbstraction,fossilGroundwaterAbstraction,totalGroundwaterAbstraction,totalAbstraction,irrGrossDemand,nonIrrGrossDemand,totalGrossDemand,nonIrrWaterConsumption,nonIrrReturnFlow,runoff,actualET,irrPaddyWaterWithdrawal,irrNonPaddyWaterWithdrawal,irrigationWaterWithdrawal,domesticWaterWithdrawal,industryWaterWithdrawal,livestockWaterWithdrawal,irrigationWaterWithdrawalVolume,domesticWaterWithdrawalVolume,industryWaterWithdrawalVolume,livestockWaterWithdrawalVolume,totalGroundwaterAbstractionVolume,surfaceWaterAbstractionVolume,desalinationAbstractionVolume,irrGrossDemandVolume,nonIrrGrossDemandVolume,totalGrossDemandVolume,precipitation_at_irrigation,netLqWaterToSoil_at_irrigation,evaporation_from_irrigation,transpiration_from_irrigation,precipitation_at_irrigation_volume,netLqWaterToSoil_at_irrigation_volume,evaporation_from_irrigation_volume,transpiration_from_irrigation_volume,referencePotET
# - monthly and annual maxima
outMonthMaxNC = channelStorage,dynamicFracWat,floodVolume,floodDepth,surfaceWaterLevel
outAnnuaMaxNC = None

# netcdf format and zlib setup
formatNetCDF = NETCDF4
zlib = True
