[globalOptions]

# Set the pcrglobwb output directory in an absolute path.
outputDir    = /scratch/edwin/pcrglobwb2_output_test_with_python3_and_new_pcraster/30min/

# Set the input directory map in an absolute path. 
# - The input forcing and parameter directories and files will be relative to this.
#~ inputDir  = /projects/0/dfguu/data/hydroworld/pcrglobwb2_input_release/develop/pcrglobwb2_input/
inputDir     = /home/sutan101/mount/cartesius_edwin/lustre1/0/dfguu/users/edwin/data/pcrglobwb2_input_release/develop/pcrglobwb2_input/

# Map of clone (must be provided in PCRaster maps)
# - Spatial resolution and coverage are based on this map:
cloneMap    = global_30min/cloneMaps/clone_global_30min.map

# The area/landmask of interest:
# If None, area/landmask is limited for cells with ldd value. 
landmask    = None

# netcdf attributes for output files:
institution = Department of Physical Geography, Utrecht University
title       = PCR-GLOBWB 2 output (not coupled to MODFLOW) at 30 arcmin, with human factors (non-natural)
description = by Edwin H. Sutanudjaja (contact: e.h.sutanudjaja@uu.nl), PCR-GLOBWB run with human factors (non-natural) at 30 arcmin resolution

startTime = 2000-01-01
endTime   = 2010-12-31
# Format: YYYY-MM-DD ; The model runs on daily time step.

# spinning up options:
maxSpinUpsInYears = 0
minConvForSoilSto = 0.0
minConvForGwatSto = 0.0
minConvForChanSto = 0.0
minConvForTotlSto = 0.0


[meteoOptions]

# Set the forcing temperature and precipitation files (relative to inputDir)
precipitationNC = global_30min/meteo/forcing/daily_precipitation_cru_era-interim_2000_to_2010.nc
temperatureNC   = global_30min/meteo/forcing/daily_temperature_cru_era-interim_2000_to_2010.nc

# Method to calculate referencePotETP (reference potential evaporation+transpiration)
# options are "Hamon" and "Input" ; If "Input", the netcdf input file must be given:
referenceETPotMethod = Input
refETPotFileNC  = global_30min/meteo/forcing/daily_referencePotET_cru_era-interim_2000_to_2010.nc


[landSurfaceOptions]

debugWaterBalance = True

numberOfUpperSoilLayers = 2

# soil and parameters
# - they are used for all land cover types, unless they are are defined in certain land cover type options 
#   (e.g. different/various soil types for agriculture areas)  
topographyNC     = global_30min/landSurface/topography/topography_parameters_30_arcmin_october_2015.nc
soilPropertiesNC = global_30min/landSurface/soil/soilProperties.nc

includeIrrigation = True

# netcdf time series for historical expansion of irrigation areas (unit: hectares). 
# Note: The resolution of this map must be consisten with the resolution of cellArea. 
historicalIrrigationArea = global_30min/waterUse/irrigation/irrigated_areas/irrigationArea30ArcMin.nc

# a pcraster map/value defining irrigation efficiency (dimensionless) - optional
irrigationEfficiency     = global_30min/waterUse/irrigation/irrigation_efficiency/efficiency.map


includeDomesticWaterDemand  = True
includeIndustryWaterDemand  = True
includeLivestockWaterDemand = True

# domestic, industrial and livestock water demand data (unit must be in m.day-1)
domesticWaterDemandFile  = global_30min/waterUse/waterDemand/domestic_water_demand_version_october_2014.nc
industryWaterDemandFile  = global_30min/waterUse/waterDemand/industrial_water_demand_version_october_2014.nc
livestockWaterDemandFile = global_30min/waterUse/waterDemand/livestock_water_demand_1960-2012.nc

# desalination water supply (maximum/potential/capacity)
desalinationWater = global_30min/waterUse/desalination/desalination_water_use_version_october_2014.nc

# zone IDs (scale) at which allocations of groundwater and surface water (as well as desalinated water) are performed  
allocationSegmentsForGroundSurfaceWater = global_30min/waterUse/abstraction_zones/abstraction_zones_60min_30min.map

# pcraster maps defining the partitioning of groundwater - surface water source 
#
# - predefined surface water - groundwater partitioning for irrigation demand (e.g. based on Siebert, Global Map of Irrigation Areas version 5)
irrigationSurfaceWaterAbstractionFractionData           = global_30min/waterUse/source_partitioning/surface_water_fraction_for_irrigation/AEI_SWFRAC.map
# -- quality map
irrigationSurfaceWaterAbstractionFractionDataQuality    = global_30min/waterUse/source_partitioning/surface_water_fraction_for_irrigation/AEI_QUAL.map
#
# - threshold values defining the preference for surface water source for irrigation purpose
# -- treshold to maximize surface water irrigation use (cells with irrSurfaceWaterAbstractionFraction above this will prioritize irrigation surface water use)
treshold_to_maximize_irrigation_surface_water           = 0.50
# -- treshold to minimize fossil water withdrawal for irrigation (cells with irrSurfaceWaterAbstractionFraction below this have no fossil withdrawal for irrigation)
treshold_to_minimize_fossil_groundwater_irrigation      = 0.70
#
# - predefined surface water - groundwater partitioning for non irrigation demand (e.g. based on McDonald, 2014)
maximumNonIrrigationSurfaceWaterAbstractionFractionData = global_30min/waterUse/source_partitioning/surface_water_fraction_for_non_irrigation/max_city_sw_fraction.map


[forestOptions]

name = forest
debugWaterBalance = True

# snow module properties
snowModuleType      =  Simple
freezingT           =  0.0
degreeDayFactor     =  0.0025
snowWaterHoldingCap =  0.1
refreezingCoeff     =  0.05

# other paramater values
minTopWaterLayer  = 0.0
minCropKC         = 0.2

cropCoefficientNC = global_30min/landSurface/landCover/naturalTall/Global_CropCoefficientKc-Forest_30min.nc
interceptCapNC    = global_30min/landSurface/landCover/naturalTall/interceptCapInputForest366days.nc
coverFractionNC   = global_30min/landSurface/landCover/naturalTall/coverFractionInputForest366days.nc

landCoverMapsNC   = global_30min/landSurface/landCover/naturalTall/forestProperties.nc

# initial conditions:
interceptStorIni = global_30min/initialConditions/non-natural/consistent_run_201903XX/1999/interceptStor_forest_1999-12-31.map
snowCoverSWEIni  = global_30min/initialConditions/non-natural/consistent_run_201903XX/1999/snowCoverSWE_forest_1999-12-31.map
snowFreeWaterIni = global_30min/initialConditions/non-natural/consistent_run_201903XX/1999/snowFreeWater_forest_1999-12-31.map
topWaterLayerIni = global_30min/initialConditions/non-natural/consistent_run_201903XX/1999/topWaterLayer_forest_1999-12-31.map
storUppIni       = global_30min/initialConditions/non-natural/consistent_run_201903XX/1999/storUpp_forest_1999-12-31.map
storLowIni       = global_30min/initialConditions/non-natural/consistent_run_201903XX/1999/storLow_forest_1999-12-31.map
interflowIni     = global_30min/initialConditions/non-natural/consistent_run_201903XX/1999/interflow_forest_1999-12-31.map


[grasslandOptions]

name = grassland
debugWaterBalance = True

# snow module properties
snowModuleType      =  Simple
freezingT           =  0.0
degreeDayFactor     =  0.0025
snowWaterHoldingCap =  0.1
refreezingCoeff     =  0.05

# other paramater values
minTopWaterLayer = 0.0
minCropKC        = 0.2

cropCoefficientNC = global_30min/landSurface/landCover/naturalShort/Global_CropCoefficientKc-Grassland_30min.nc
interceptCapNC    = global_30min/landSurface/landCover/naturalShort/interceptCapInputGrassland366days.nc
coverFractionNC   = global_30min/landSurface/landCover/naturalShort/coverFractionInputGrassland366days.nc

landCoverMapsNC  = global_30min/landSurface/landCover/naturalShort/grasslandProperties.nc

# initial conditions:
interceptStorIni = global_30min/initialConditions/non-natural/consistent_run_201903XX/1999/interceptStor_grassland_1999-12-31.map
snowCoverSWEIni  = global_30min/initialConditions/non-natural/consistent_run_201903XX/1999/snowCoverSWE_grassland_1999-12-31.map
snowFreeWaterIni = global_30min/initialConditions/non-natural/consistent_run_201903XX/1999/snowFreeWater_grassland_1999-12-31.map
topWaterLayerIni = global_30min/initialConditions/non-natural/consistent_run_201903XX/1999/topWaterLayer_grassland_1999-12-31.map
storUppIni       = global_30min/initialConditions/non-natural/consistent_run_201903XX/1999/storUpp_grassland_1999-12-31.map
storLowIni       = global_30min/initialConditions/non-natural/consistent_run_201903XX/1999/storLow_grassland_1999-12-31.map
interflowIni     = global_30min/initialConditions/non-natural/consistent_run_201903XX/1999/interflow_grassland_1999-12-31.map


[irrPaddyOptions]

name = irrPaddy
debugWaterBalance = True

# snow module properties
snowModuleType      =  Simple
freezingT           =  0.0
degreeDayFactor     =  0.0025
snowWaterHoldingCap =  0.1
refreezingCoeff     =  0.05

landCoverMapsNC  = global_30min/landSurface/landCover/irrPaddy/paddyProperties.nc
#
# other paramater values
minTopWaterLayer = 0.05
minCropKC        = 0.2
cropDeplFactor   = 0.2
minInterceptCap  = 0.0002

cropCoefficientNC = global_30min/landSurface/landCover/irrPaddy/Global_CropCoefficientKc-IrrPaddy_30min.nc

# initial conditions:
interceptStorIni = global_30min/initialConditions/non-natural/consistent_run_201903XX/1999/interceptStor_irrPaddy_1999-12-31.map
snowCoverSWEIni  = global_30min/initialConditions/non-natural/consistent_run_201903XX/1999/snowCoverSWE_irrPaddy_1999-12-31.map
snowFreeWaterIni = global_30min/initialConditions/non-natural/consistent_run_201903XX/1999/snowFreeWater_irrPaddy_1999-12-31.map
topWaterLayerIni = global_30min/initialConditions/non-natural/consistent_run_201903XX/1999/topWaterLayer_irrPaddy_1999-12-31.map
storUppIni       = global_30min/initialConditions/non-natural/consistent_run_201903XX/1999/storUpp_irrPaddy_1999-12-31.map
storLowIni       = global_30min/initialConditions/non-natural/consistent_run_201903XX/1999/storLow_irrPaddy_1999-12-31.map
interflowIni     = global_30min/initialConditions/non-natural/consistent_run_201903XX/1999/interflow_irrPaddy_1999-12-31.map


[irrNonPaddyOptions]

name = irrNonPaddy
debugWaterBalance = True

# snow module properties
snowModuleType      =  Simple
freezingT           =  0.0
degreeDayFactor     =  0.0025
snowWaterHoldingCap =  0.1
refreezingCoeff     =  0.05

landCoverMapsNC  = global_30min/landSurface/landCover/irrNonPaddy/nonPaddyProperties.nc
#
# other paramater values
minTopWaterLayer = 0.0
minCropKC        = 0.2
cropDeplFactor   = 0.5
minInterceptCap  = 0.0002

cropCoefficientNC = global_30min/landSurface/landCover/irrNonPaddy/Global_CropCoefficientKc-IrrNonPaddy_30min.nc

# initial conditions:
interceptStorIni = global_30min/initialConditions/non-natural/consistent_run_201903XX/1999/interceptStor_irrNonPaddy_1999-12-31.map
snowCoverSWEIni  = global_30min/initialConditions/non-natural/consistent_run_201903XX/1999/snowCoverSWE_irrNonPaddy_1999-12-31.map
snowFreeWaterIni = global_30min/initialConditions/non-natural/consistent_run_201903XX/1999/snowFreeWater_irrNonPaddy_1999-12-31.map
topWaterLayerIni = global_30min/initialConditions/non-natural/consistent_run_201903XX/1999/topWaterLayer_irrNonPaddy_1999-12-31.map
storUppIni       = global_30min/initialConditions/non-natural/consistent_run_201903XX/1999/storUpp_irrNonPaddy_1999-12-31.map
storLowIni       = global_30min/initialConditions/non-natural/consistent_run_201903XX/1999/storLow_irrNonPaddy_1999-12-31.map
interflowIni     = global_30min/initialConditions/non-natural/consistent_run_201903XX/1999/interflow_irrNonPaddy_1999-12-31.map




[groundwaterOptions]

debugWaterBalance = True

groundwaterPropertiesNC = global_30min/groundwater/properties/groundwaterProperties.nc
# The file will containspecificYield (m3.m-3), kSatAquifer (m.day-1), recessionCoeff (day-1)
#
# - minimum value for groundwater recession coefficient (day-1) 
minRecessionCoeff = 1.0e-4

# some options for constraining groundwater abstraction
limitFossilGroundWaterAbstraction      = True
estimateOfRenewableGroundwaterCapacity = 0.0
estimateOfTotalGroundwaterThickness    = global_30min/groundwater/aquifer_thickness_estimate/thickness_30min.map
# minimum and maximum total groundwater thickness 
minimumTotalGroundwaterThickness       = 100.
maximumTotalGroundwaterThickness       = None

# annual pumping capacity for each region (unit: billion cubic meter per year), should be given in a netcdf file
pumpingCapacityNC = global_30min/waterUse/groundwater_pumping_capacity/regional_abstraction_limit.nc

# initial conditions:
storGroundwaterIni                        = global_30min/initialConditions/non-natural/consistent_run_201903XX/1999/storGroundwater_1999-12-31.map
storGroundwaterFossilIni                  = global_30min/initialConditions/non-natural/consistent_run_201903XX/1999/storGroundwaterFossil_1999-12-31.map
#
# additional initial conditions for pumping behaviors
avgNonFossilGroundwaterAllocationLongIni  = global_30min/initialConditions/non-natural/consistent_run_201903XX/1999/avgNonFossilGroundwaterAllocationLong_1999-12-31.map
avgNonFossilGroundwaterAllocationShortIni = global_30min/initialConditions/non-natural/consistent_run_201903XX/1999/avgNonFossilGroundwaterAllocationShort_1999-12-31.map
avgTotalGroundwaterAbstractionIni         = global_30min/initialConditions/non-natural/consistent_run_201903XX/1999/avgTotalGroundwaterAbstraction_1999-12-31.map
avgTotalGroundwaterAllocationLongIni      = global_30min/initialConditions/non-natural/consistent_run_201903XX/1999/avgTotalGroundwaterAllocationLong_1999-12-31.map
avgTotalGroundwaterAllocationShortIni     = global_30min/initialConditions/non-natural/consistent_run_201903XX/1999/avgTotalGroundwaterAllocationShort_1999-12-31.map
#
# additional initial conditions (needed only for MODFLOW run) 
relativeGroundwaterHeadIni                = global_30min/initialConditions/non-natural/consistent_run_201903XX/1999/relativeGroundwaterHead_1999-12-31.map
baseflowIni                               = global_30min/initialConditions/non-natural/consistent_run_201903XX/1999/baseflow_1999-12-31.map

# zonal IDs (scale) at which zonal allocation of groundwater is performed  
allocationSegmentsForGroundwater = global_30min/waterUse/abstraction_zones/abstraction_zones_30min_30min.map



[routingOptions]

debugWaterBalance = True

# drainage direction map
lddMap      = global_30min/routing/ldd_and_cell_area/lddsound_30min.map

# cell area (unit: m2)
cellAreaMap = global_30min/routing/ldd_and_cell_area/cellarea30min.map

# routing method:
routingMethod = accuTravelTime

# manning coefficient
manningsN   = 0.04

# Option for flood plain simulation
#~ dynamicFloodPlain = True
dynamicFloodPlain    = False

# manning coefficient for floodplain
floodplainManningsN = 0.07


# channel gradient
gradient             = global_30min/routing/channel_properties/channel_gradient.map

# constant channel depth 
constantChannelDepth = global_30min/routing/channel_properties/bankfull_depth.map

# constant channel width (optional)
constantChannelWidth = global_30min/routing/channel_properties/bankfull_width.map

# minimum channel width (optional)
minimumChannelWidth  = global_30min/routing/channel_properties/bankfull_width.map

# channel properties for flooding
bankfullCapacity     = None
# - If None, it will be estimated from (bankfull) channel depth (m) and width (m) 


# files for relative elevation (above minimum dem) 
relativeElevationFiles  = global_30min/routing/channel_properties/dzRel%%04d.map
relativeElevationLevels = 0.0, 0.01, 0.05, 0.10, 0.20, 0.30, 0.40, 0.50, 0.60, 0.70, 0.80, 0.90, 1.00


# composite crop factors for WaterBodies: 
cropCoefficientWaterNC = global_30min/routing/kc_surface_water/cropCoefficientForOpenWater.nc
minCropWaterKC         = 1.00


# lake and reservoir parameters
waterBodyInputNC       = global_30min/routing/surface_water_bodies/waterBodies30min.nc
onlyNaturalWaterBodies = False


# initial conditions:
waterBodyStorageIni            = global_30min/initialConditions/non-natural/consistent_run_201903XX/1999/waterBodyStorage_1999-12-31.map
channelStorageIni              = global_30min/initialConditions/non-natural/consistent_run_201903XX/1999/channelStorage_1999-12-31.map
readAvlChannelStorageIni       = global_30min/initialConditions/non-natural/consistent_run_201903XX/1999/readAvlChannelStorage_1999-12-31.map
avgDischargeLongIni            = global_30min/initialConditions/non-natural/consistent_run_201903XX/1999/avgDischargeLong_1999-12-31.map
avgDischargeShortIni           = global_30min/initialConditions/non-natural/consistent_run_201903XX/1999/avgDischargeShort_1999-12-31.map
m2tDischargeLongIni            = global_30min/initialConditions/non-natural/consistent_run_201903XX/1999/m2tDischargeLong_1999-12-31.map
avgBaseflowLongIni             = global_30min/initialConditions/non-natural/consistent_run_201903XX/1999/avgBaseflowLong_1999-12-31.map
riverbedExchangeIni            = global_30min/initialConditions/non-natural/consistent_run_201903XX/1999/riverbedExchange_1999-12-31.map
#
# initial condition of sub-time step discharge (needed for estimating number of time steps in kinematic wave methods)
subDischargeIni                = global_30min/initialConditions/non-natural/consistent_run_201903XX/1999/subDischarge_1999-12-31.map
#
avgLakeReservoirInflowShortIni = global_30min/initialConditions/non-natural/consistent_run_201903XX/1999/avgLakeReservoirInflowShort_1999-12-31.map
avgLakeReservoirOutflowLongIni = global_30min/initialConditions/non-natural/consistent_run_201903XX/1999/avgLakeReservoirOutflowLong_1999-12-31.map
#
# number of days (timesteps) that have been performed for spinning up initial conditions in the routing module (i.e. channelStorageIni, avgDischargeLongIni, avgDischargeShortIni, etc.)
timestepsToAvgDischargeIni     = global_30min/initialConditions/non-natural/consistent_run_201903XX/1999/timestepsToAvgDischarge_1999-12-31.map
# Note that: 
# - maximum number of days (timesteps) to calculate long term average flow values (default: 5 years = 5 * 365 days = 1825)
# - maximum number of days (timesteps) to calculate short term average values (default: 1 month = 1 * 30 days = 30)




[reportingOptions]

# output files that will be written in the disk in netcdf files:
# - daily resolution
outDailyTotNC = discharge,totalRunoff,gwRecharge,totalGroundwaterAbstraction,surfaceWaterStorage
# - monthly resolution
outMonthTotNC = actualET,irrPaddyWaterWithdrawal,irrNonPaddyWaterWithdrawal,domesticWaterWithdrawal,industryWaterWithdrawal,livestockWaterWithdrawal,runoff,totalRunoff,baseflow,directRunoff,interflowTotal,totalGroundwaterAbstraction,desalinationAbstraction,surfaceWaterAbstraction,nonFossilGroundwaterAbstraction,fossilGroundwaterAbstraction,irrGrossDemand,nonIrrGrossDemand,totalGrossDemand,nonIrrWaterConsumption,nonIrrReturnFlow,precipitation,gwRecharge,surfaceWaterInf,referencePotET,totalEvaporation,totalPotentialEvaporation,totLandSurfaceActuaET,totalLandSurfacePotET,waterBodyActEvaporation,waterBodyPotEvaporation
outMonthAvgNC = discharge,temperature,dynamicFracWat,surfaceWaterStorage,interceptStor,snowFreeWater,snowCoverSWE,topWaterLayer,storUppTotal,storLowTotal,storGroundwater,storGroundwaterFossil,totalActiveStorageThickness,totalWaterStorageThickness,satDegUpp,satDegLow,channelStorage,waterBodyStorage
outMonthEndNC = storGroundwater,storGroundwaterFossil,waterBodyStorage,channelStorage,totalWaterStorageThickness,totalActiveStorageThickness
# - annual resolution
outAnnuaTotNC = totalEvaporation,precipitation,gwRecharge,totalRunoff,baseflow,desalinationAbstraction,surfaceWaterAbstraction,nonFossilGroundwaterAbstraction,fossilGroundwaterAbstraction,totalGroundwaterAbstraction,totalAbstraction,irrGrossDemand,nonIrrGrossDemand,totalGrossDemand,nonIrrWaterConsumption,nonIrrReturnFlow,runoff,actualET,irrPaddyWaterWithdrawal,irrNonPaddyWaterWithdrawal,irrigationWaterWithdrawal,domesticWaterWithdrawal,industryWaterWithdrawal,livestockWaterWithdrawal,precipitation_at_irrigation,netLqWaterToSoil_at_irrigation,evaporation_from_irrigation,transpiration_from_irrigation,referencePotET
outAnnuaAvgNC = temperature,discharge,surfaceWaterStorage,waterBodyStorage,interceptStor,snowFreeWater,snowCoverSWE,topWaterLayer,storUppTotal,storLowTotal,storGroundwater,storGroundwaterFossil,totalWaterStorageThickness,satDegUpp,satDegLow,channelStorage,waterBodyStorage,fractionWaterBodyEvaporation,fractionTotalEvaporation,fracSurfaceWaterAllocation,fracDesalinatedWaterAllocation,gwRecharge
outAnnuaEndNC = surfaceWaterStorage,interceptStor,snowFreeWater,snowCoverSWE,topWaterLayer,storUppTotal,storLowTotal,storGroundwater,storGroundwaterFossil,totalWaterStorageThickness
# - monthly and annual maxima
outMonthMaxNC = channelStorage,dynamicFracWat,floodVolume,floodDepth,surfaceWaterLevel,discharge,totalRunoff
outAnnuaMaxNC = None

# netcdf format and zlib setup
formatNetCDF = NETCDF4
zlib = True



