[globalOptions]

# Set the pcrglobwb output directory in an absolute path.
outputDir    = /projects/0/dfguu2/scratch/edwinhs/pcrglobwb2_output_05min_deltares_subsidence_version_20181101/non-natural_test_debug_4_land_covers/begin_from_1995/global/

# Set the input directory map in an absolute path. 
# - The input forcing and parameter directories and files will be relative to this.
inputDir     = /projects/0/dfguu/data/hydroworld/pcrglobwb2_input_release/develop/pcrglobwb2_input/

# the following is needed for a parallel run
cloneAreas    = Global
#~ #
#~ # PART ONE
#~ cloneAreas = part_one
#~ # PART TWO
#~ cloneAreas = part_two

# Map of clone (must be provided in PCRaster maps)
# - Spatial resolution and coverage are based on this map:
cloneMap    = global_05min/cloneMaps/global_parallelization/clone_%3s.map
#~ cloneMap = global_05min/cloneMaps/global_parallelization/clone_M40.map
#~ cloneMap = global_05min/routing/ldd_and_cell_area/lddsound_05min.map
#~ cloneMap = /projects/0/dfguu/data/hydroworld/others/Java/Java05min.clone.map
#~ cloneMap = /projects/0/dfguu/data/hydroworld/others/Mississippi/Mississippi05min.clone.map
#~ cloneMap = /projects/0/dfguu/users/edwinhs/data/mekong_etc_clone/version_2018-10-22/final/clone_mekong.map


# The area/landmask of interest:
# If None, area/landmask is limited for cells with ldd value. 
landmask    = global_05min/cloneMaps/global_parallelization/mask_%3s.map
#~ landmask = None

# netcdf attributes for output files:
institution  = Department of Physical Geography, Utrecht University
title        = PCR-GLOBWB 2 output (not coupled to MODFLOW) - run with human influence
description  = by Edwin H. Sutanudjaja (contact: e.h.sutanudjaja@uu.nl) for Deltares land subsidence model

startTime = 1995-01-01
endTime   = 2010-12-31
# Format: YYYY-MM-DD ; The current model runs on the daily time step.

# spinning up options:
maxSpinUpsInYears = 0
minConvForSoilSto = 0.0
minConvForGwatSto = 0.0
minConvForChanSto = 0.0
minConvForTotlSto = 0.0

# option/directory for saving the spin-up directory 
spinUpOutputDir = True

# an optional option to include the merging process (needed for parallel runs with/without modflow) 
# - for parallel runs with spin-ups, we should set this to False
#~ with_merging = False
with_merging    = True

[globalMergingAndModflowOptions]

# the global clone map
cloneMap = global_05min/routing/ldd_and_cell_area/lddsound_05min.map

# The area/landmask of interest:
landmask = None
# If None, area/landmask is limited for cells with ldd value. 

# option to indicate if an online coupling between PCR-GLOBWB and MODFLOW models used
online_coupling_between_pcrglobwb_and_modflow = False



[prefactorOptions]

linear_multiplier_for_refPotET         = 1.0
linear_multiplier_for_degreeDayFactor  = 1.0
linear_multiplier_for_minSoilDepthFrac = 1.0
log_10_multiplier_for_kSat             = 0.0
linear_multiplier_for_storCap          = 1.0
log_10_multiplier_for_recessionCoeff   = 0.0



[meteoOptions]

# Set the forcing temperature and precipitation files (relative to inputDir)
precipitationNC = /projects/0/dfguu/data/hydroworld/forcing/ERA20C/CRU-TS3.23_ERA20C_daily_precipitation_1901_to_2010.nc
temperatureNC   = /projects/0/dfguu/data/hydroworld/forcing/ERA20C/CRU-TS3.23_ERA20C_daily_temperature_1901_to_2010.nc

# Method to calculate referencePotETP (reference potential evaporation+transpiration)
# options are "Hamon" and "Input" ; If "Input", the netcdf input file must be given:
referenceETPotMethod = Input
refETPotFileNC  = /projects/0/dfguu/data/hydroworld/forcing/ERA20C/CRU-TS3.23_ERA20C_daily_referencePotET_1901_to_2010.nc



[meteoDownscalingOptions]
# This section is for a 5 arcmin run, for downscaling meteorological forcing at 30 arcmin to 5 arcmin.  
                                                                                                                                        
downscalePrecipitation  = False                                                                                                                                   
downscaleTemperature    = True                                                                                                                                   
downscaleReferenceETPot = False                                                                                                                                   
   
# downscaling (based on the digital elevation model):                                                                                                            
# The downscaling will be performed by providing the "cellIds" (meteoDownscaleIds) of lower resolution cells.                                                    
meteoDownscaleIds = global_05min/meteo/downscaling_from_30min/uniqueIds_30min.map                                                                      
highResolutionDEM = global_05min/meteo/downscaling_from_30min/gtopo05min.map                                                                           
   
# lapse rates:                                                                                                                                                   
temperLapseRateNC = global_05min/meteo/downscaling_from_30min/temperature_slope.nc                                                                     
precipLapseRateNC = global_05min/meteo/downscaling_from_30min/precipitation_slope.nc                                                                   
                                                                                                                                                                 
# downscaling criteria (TODO: remove these):                                                                                                                     
temperatCorrelNC  = global_05min/meteo/downscaling_from_30min/temperature_correl.nc                                                                     
precipitCorrelNC  = global_05min/meteo/downscaling_from_30min/precipitation_correl.nc                                                                   
                                                                                                                                                                 
# windows length (unit: arc-degree) for smoothing/averaging forcing data (not recommended):                                                                      
smoothingWindowsLength = 0




[landSurfaceOptions]
debugWaterBalance = True

numberOfUpperSoilLayers = 2

# soil and parameters
# - they are used for all land cover types, unless they are are defined in certain land cover type options 
#   (e.g. different/various soil types for agriculture areas)  
topographyNC     = global_05min/landSurface/topography/topography_parameters_5_arcmin_october_2015.nc
soilPropertiesNC = global_05min/landSurface/soil/soilProperties5ArcMin.nc


includeIrrigation = True

# netcdf time series for historical expansion of irrigation areas (unit: hectares). 
# Note: The resolution of this map must be consisten with the resolution of cellArea. 
historicalIrrigationArea = global_05min/waterUse/irrigation/irrigated_areas/irrigationArea05ArcMin.nc


# a pcraster map/value defining irrigation efficiency (dimensionless) - optional
irrigationEfficiency = global_30min/waterUse/irrigation/irrigation_efficiency/efficiency.map


includeDomesticWaterDemand  = True
includeIndustryWaterDemand  = True
includeLivestockWaterDemand = True


# domestic, industrial and livestock water demand data (unit must be in m.day-1)
#~ # - water demand as defined in the GLOWASIS
#~ domesticWaterDemandFile  = /projects/0/dfguu/users/edwin/data/data_from_yoshi/GLOWASIS_water_demand/05min/remapbil/domestic_water_demand_5min_meter_per_day_date_fixed.nc
#~ industryWaterDemandFile  = /projects/0/dfguu/users/edwin/data/data_from_yoshi/GLOWASIS_water_demand/05min/remapbil/industry_water_demand_5min_meter_per_day_date_fixed.nc
#~ livestockWaterDemandFile = /projects/0/dfguu/users/edwin/data/data_from_yoshi/GLOWASIS_water_demand/05min/remapbil/livestock_water_demand_5min_meter_per_day_date_fixed.nc
# - water demand as used in the GMD paper
domesticWaterDemandFile  = global_05min/waterUse/waterDemand/domestic/domestic_water_demand_version_april_2015.nc
industryWaterDemandFile  = global_05min/waterUse/waterDemand/industry/industry_water_demand_version_april_2015.nc
livestockWaterDemandFile = global_05min/waterUse/waterDemand/livestock/livestock_water_demand_version_april_2015.nc


# desalination water supply (maximum/potential/capacity)
desalinationWater = global_05min/waterUse/desalination/desalination_water_version_april_2015.nc


# zone IDs (scale) at which allocations of groundwater and surface water (as well as desalinated water) are performed  
allocationSegmentsForGroundSurfaceWater = global_05min/waterUse/abstraction_zones/abstraction_zones_60min_05min.map

# pcraster maps defining the partitioning of groundwater - surface water source 
#
# - predefined surface water - groundwater partitioning for irrigation demand (e.g. based on Siebert, Global Map of Irrigation Areas version 5)
irrigationSurfaceWaterAbstractionFractionData           = global_05min/waterUse/source_partitioning/surface_water_fraction_for_irrigation/AEI_SWFRAC.map
# -- quality map
irrigationSurfaceWaterAbstractionFractionDataQuality    = global_05min/waterUse/source_partitioning/surface_water_fraction_for_irrigation/AEI_QUAL.map
#
# - threshold values defining the preference for surface water source for irrigation purpose
# -- treshold to maximize surface water irrigation use (cells with irrSurfaceWaterAbstractionFraction above this will prioritize irrigation surface water use)
treshold_to_maximize_irrigation_surface_water           = 0.50
# -- treshold to minimize fossil water withdrawal for irrigation (cells with irrSurfaceWaterAbstractionFraction below this have no fossil withdrawal for irrigation)
treshold_to_minimize_fossil_groundwater_irrigation      = 0.70
#
# - predefined surface water - groundwater partitioning for non irrigation demand
maximumNonIrrigationSurfaceWaterAbstractionFractionData    = 1.0
#~ maximumNonIrrigationSurfaceWaterAbstractionFractionData = global_30min/waterUse/source_partitioning/surface_water_fraction_for_non_irrigation/max_city_sw_fraction.map
predefinedNonIrrigationSurfaceWaterAbstractionFractionData = /projects/0/dfguu/users/edwinhs/data/updating_mcdonald_table_version_2018-08-XX/05min/non_irr_sws_fraction.map

# - option for prioritizing sectoral water demands in the following order: 1) Domestic; 2) Industry; 3) Livestock; 4) Agriculture/Irrigation
prioritizeDomesticThenIndutrialThenLivestock = True

# - option to optimize surface water source
optimizeSurfaceWaterSource = True

[forestOptions]

name = forest
debugWaterBalance = True

# snow module properties
snowModuleType      =  Simple
freezingT           =  0.0
degreeDayFactor     =  0.0025
snowWaterHoldingCap =  0.1
refreezingCoeff     =  0.05

# other paramater values
minTopWaterLayer  = 0.0
minCropKC         = 0.2

cropCoefficientNC = global_05min/landSurface/landCover/naturalTall/cropCoefficientForest.nc
interceptCapNC    = global_05min/landSurface/landCover/naturalTall/interceptCapInputForest.nc
coverFractionNC   = global_05min/landSurface/landCover/naturalTall/coverFractionInputForest.nc

landCoverMapsNC   = None
# If NC file is not provided, we have to provide the following pcraster maps:
fracVegCover      = global_05min/landSurface/landCover/naturalTall/vegf_tall.map
minSoilDepthFrac  = global_30min/landSurface/landCover/naturalTall/minf_tall_permafrost.map
maxSoilDepthFrac  = global_30min/landSurface/landCover/naturalTall/maxf_tall.map
rootFraction1     = global_05min/landSurface/landCover/naturalTall/rfrac1_tall.map
rootFraction2     = global_05min/landSurface/landCover/naturalTall/rfrac2_tall.map	
maxRootDepth      = 1.0
# Note: The maxRootDepth is not used for non irrigated land cover type. 	
#
# Parameters for the Arno's scheme:
arnoBeta = None
# If arnoBeta is defined, the soil water capacity distribution is based on this.
# If arnoBeta is NOT defined, maxSoilDepthFrac must be defined such that arnoBeta will be calculated based on maxSoilDepthFrac and minSoilDepthFrac.

# initial conditions:
interceptStorIni = /projects/0/dfguu2/scratch/edwinhs/pcrglobwb2_output_05min_deltares_subsidence_version_201810XX/natural_spinup_only_correct_soil/begin_from_1955/global/states/interceptStor_forest_2010-12-31.map
snowCoverSWEIni  = /projects/0/dfguu2/scratch/edwinhs/pcrglobwb2_output_05min_deltares_subsidence_version_201810XX/natural_spinup_only_correct_soil/begin_from_1955/global/states/snowCoverSWE_forest_2010-12-31.map
snowFreeWaterIni = /projects/0/dfguu2/scratch/edwinhs/pcrglobwb2_output_05min_deltares_subsidence_version_201810XX/natural_spinup_only_correct_soil/begin_from_1955/global/states/snowFreeWater_forest_2010-12-31.map
topWaterLayerIni = /projects/0/dfguu2/scratch/edwinhs/pcrglobwb2_output_05min_deltares_subsidence_version_201810XX/natural_spinup_only_correct_soil/begin_from_1955/global/states/topWaterLayer_forest_2010-12-31.map
storUppIni       = /projects/0/dfguu2/scratch/edwinhs/pcrglobwb2_output_05min_deltares_subsidence_version_201810XX/natural_spinup_only_correct_soil/begin_from_1955/global/states/storUpp_forest_2010-12-31.map
storLowIni       = /projects/0/dfguu2/scratch/edwinhs/pcrglobwb2_output_05min_deltares_subsidence_version_201810XX/natural_spinup_only_correct_soil/begin_from_1955/global/states/storLow_forest_2010-12-31.map
interflowIni     = /projects/0/dfguu2/scratch/edwinhs/pcrglobwb2_output_05min_deltares_subsidence_version_201810XX/natural_spinup_only_correct_soil/begin_from_1955/global/states/interflow_forest_2010-12-31.map



[grasslandOptions]

name = grassland
debugWaterBalance = True

# snow module properties
snowModuleType      =  Simple
freezingT           =  0.0
degreeDayFactor     =  0.0025
snowWaterHoldingCap =  0.1
refreezingCoeff     =  0.05

# other paramater values
minTopWaterLayer = 0.0
minCropKC        = 0.2

cropCoefficientNC = global_05min/landSurface/landCover/naturalShort/cropCoefficientGrassland.nc
interceptCapNC    = global_05min/landSurface/landCover/naturalShort/interceptCapInputGrassland.nc
coverFractionNC   = global_05min/landSurface/landCover/naturalShort/coverFractionInputGrassland.nc

landCoverMapsNC   = None
# If NC file is not provided, we have to provide the following values:
fracVegCover      = global_05min/landSurface/landCover/naturalShort/vegf_short.map
minSoilDepthFrac  = global_30min/landSurface/landCover/naturalShort/minf_short_permafrost.map
maxSoilDepthFrac  = global_30min/landSurface/landCover/naturalShort/maxf_short.map
rootFraction1     = global_05min/landSurface/landCover/naturalShort/rfrac1_short.map
rootFraction2     = global_05min/landSurface/landCover/naturalShort/rfrac2_short.map	
maxRootDepth      = 0.5
# Note: The maxRootDepth is not used for non irrigated land cover type. 	
#
# Parameters for the Arno's scheme:
arnoBeta = None
# If arnoBeta is defined, the soil water capacity distribution is based on this.
# If arnoBeta is NOT defined, maxSoilDepthFrac must be defined such that arnoBeta will be calculated based on maxSoilDepthFrac and minSoilDepthFrac.

# initial conditions:
interceptStorIni = /projects/0/dfguu2/scratch/edwinhs/pcrglobwb2_output_05min_deltares_subsidence_version_201810XX/natural_spinup_only_correct_soil/begin_from_1955/global/states/interceptStor_grassland_2010-12-31.map
snowCoverSWEIni  = /projects/0/dfguu2/scratch/edwinhs/pcrglobwb2_output_05min_deltares_subsidence_version_201810XX/natural_spinup_only_correct_soil/begin_from_1955/global/states/snowCoverSWE_grassland_2010-12-31.map
snowFreeWaterIni = /projects/0/dfguu2/scratch/edwinhs/pcrglobwb2_output_05min_deltares_subsidence_version_201810XX/natural_spinup_only_correct_soil/begin_from_1955/global/states/snowFreeWater_grassland_2010-12-31.map
topWaterLayerIni = /projects/0/dfguu2/scratch/edwinhs/pcrglobwb2_output_05min_deltares_subsidence_version_201810XX/natural_spinup_only_correct_soil/begin_from_1955/global/states/topWaterLayer_grassland_2010-12-31.map
storUppIni       = /projects/0/dfguu2/scratch/edwinhs/pcrglobwb2_output_05min_deltares_subsidence_version_201810XX/natural_spinup_only_correct_soil/begin_from_1955/global/states/storUpp_grassland_2010-12-31.map
storLowIni       = /projects/0/dfguu2/scratch/edwinhs/pcrglobwb2_output_05min_deltares_subsidence_version_201810XX/natural_spinup_only_correct_soil/begin_from_1955/global/states/storLow_grassland_2010-12-31.map
interflowIni     = /projects/0/dfguu2/scratch/edwinhs/pcrglobwb2_output_05min_deltares_subsidence_version_201810XX/natural_spinup_only_correct_soil/begin_from_1955/global/states/interflow_grassland_2010-12-31.map


[irrPaddyOptions]

name = irrPaddy
debugWaterBalance = True

# snow module properties
snowModuleType      =  Simple
freezingT           =  0.0
degreeDayFactor     =  0.0025
snowWaterHoldingCap =  0.1
refreezingCoeff     =  0.05
#
landCoverMapsNC  = None
# If NC file is not provided, we have to provide the following values:
fracVegCover     = global_05min/landSurface/landCover/irrPaddy/fractionPaddy.map
minSoilDepthFrac = global_30min/landSurface/landCover/irrPaddy/minf_paddy_permafrost.map
maxSoilDepthFrac = global_30min/landSurface/landCover/irrPaddy/maxf_paddy.map
rootFraction1    = global_30min/landSurface/landCover/irrPaddy/rfrac1_paddy.map
rootFraction2    = global_30min/landSurface/landCover/irrPaddy/rfrac2_paddy.map
maxRootDepth     = 0.5
#
# Parameters for the Arno's scheme:
arnoBeta = None
# If arnoBeta is defined, the soil water capacity distribution is based on this.
# If arnoBeta is NOT defined, maxSoilDepthFrac must be defined such that arnoBeta will be calculated based on maxSoilDepthFrac and minSoilDepthFrac.
#
# other paramater values
minTopWaterLayer = 0.05
minCropKC        = 0.2
cropDeplFactor   = 0.2
minInterceptCap  = 0.0002

cropCoefficientNC = global_30min/landSurface/landCover/irrPaddy/Global_CropCoefficientKc-IrrPaddy_30min.nc

# initial conditions:
interceptStorIni = /projects/0/dfguu2/scratch/edwinhs/pcrglobwb2_output_05min_deltares_subsidence_version_201810XX/natural_spinup_only_correct_soil/begin_from_1955/global/states/interceptStor_irrPaddy_2010-12-31.map
snowCoverSWEIni  = /projects/0/dfguu2/scratch/edwinhs/pcrglobwb2_output_05min_deltares_subsidence_version_201810XX/natural_spinup_only_correct_soil/begin_from_1955/global/states/snowCoverSWE_irrPaddy_2010-12-31.map
snowFreeWaterIni = /projects/0/dfguu2/scratch/edwinhs/pcrglobwb2_output_05min_deltares_subsidence_version_201810XX/natural_spinup_only_correct_soil/begin_from_1955/global/states/snowFreeWater_irrPaddy_2010-12-31.map
topWaterLayerIni = /projects/0/dfguu2/scratch/edwinhs/pcrglobwb2_output_05min_deltares_subsidence_version_201810XX/natural_spinup_only_correct_soil/begin_from_1955/global/states/topWaterLayer_irrPaddy_2010-12-31.map
storUppIni       = /projects/0/dfguu2/scratch/edwinhs/pcrglobwb2_output_05min_deltares_subsidence_version_201810XX/natural_spinup_only_correct_soil/begin_from_1955/global/states/storUpp_irrPaddy_2010-12-31.map
storLowIni       = /projects/0/dfguu2/scratch/edwinhs/pcrglobwb2_output_05min_deltares_subsidence_version_201810XX/natural_spinup_only_correct_soil/begin_from_1955/global/states/storLow_irrPaddy_2010-12-31.map
interflowIni     = /projects/0/dfguu2/scratch/edwinhs/pcrglobwb2_output_05min_deltares_subsidence_version_201810XX/natural_spinup_only_correct_soil/begin_from_1955/global/states/interflow_irrPaddy_2010-12-31.map



[irrNonPaddyOptions]

name = irrNonPaddy
debugWaterBalance = True

# snow module properties
snowModuleType      =  Simple
freezingT           =  0.0
degreeDayFactor     =  0.0025
snowWaterHoldingCap =  0.1
refreezingCoeff     =  0.05
#
landCoverMapsNC  = None
# If NC file is not provided, we have to provide the following values:
fracVegCover     = global_05min/landSurface/landCover/irrNonPaddy/fractionNonPaddy.map
minSoilDepthFrac = global_30min/landSurface/landCover/irrNonPaddy/minf_nonpaddy_permafrost.map
maxSoilDepthFrac = global_30min/landSurface/landCover/irrNonPaddy/maxf_nonpaddy.map
rootFraction1    = global_30min/landSurface/landCover/irrNonPaddy/rfrac1_nonpaddy.map
rootFraction2    = global_30min/landSurface/landCover/irrNonPaddy/rfrac2_nonpaddy.map
maxRootDepth     = 1.0
#
# Parameters for the Arno's scheme:
arnoBeta = None
# If arnoBeta is defined, the soil water capacity distribution is based on this.
# If arnoBeta is NOT defined, maxSoilDepthFrac must be defined such that arnoBeta will be calculated based on maxSoilDepthFrac and minSoilDepthFrac.
#
# other paramater values
minTopWaterLayer = 0.0
minCropKC        = 0.2
cropDeplFactor   = 0.5
minInterceptCap  = 0.0002

cropCoefficientNC = global_30min/landSurface/landCover/irrNonPaddy/Global_CropCoefficientKc-IrrNonPaddy_30min.nc

# initial conditions:
interceptStorIni = /projects/0/dfguu2/scratch/edwinhs/pcrglobwb2_output_05min_deltares_subsidence_version_201810XX/natural_spinup_only_correct_soil/begin_from_1955/global/states/interceptStor_irrNonPaddy_2010-12-31.map
snowCoverSWEIni  = /projects/0/dfguu2/scratch/edwinhs/pcrglobwb2_output_05min_deltares_subsidence_version_201810XX/natural_spinup_only_correct_soil/begin_from_1955/global/states/snowCoverSWE_irrNonPaddy_2010-12-31.map
snowFreeWaterIni = /projects/0/dfguu2/scratch/edwinhs/pcrglobwb2_output_05min_deltares_subsidence_version_201810XX/natural_spinup_only_correct_soil/begin_from_1955/global/states/snowFreeWater_irrNonPaddy_2010-12-31.map
topWaterLayerIni = /projects/0/dfguu2/scratch/edwinhs/pcrglobwb2_output_05min_deltares_subsidence_version_201810XX/natural_spinup_only_correct_soil/begin_from_1955/global/states/topWaterLayer_irrNonPaddy_2010-12-31.map
storUppIni       = /projects/0/dfguu2/scratch/edwinhs/pcrglobwb2_output_05min_deltares_subsidence_version_201810XX/natural_spinup_only_correct_soil/begin_from_1955/global/states/storUpp_irrNonPaddy_2010-12-31.map
storLowIni       = /projects/0/dfguu2/scratch/edwinhs/pcrglobwb2_output_05min_deltares_subsidence_version_201810XX/natural_spinup_only_correct_soil/begin_from_1955/global/states/storLow_irrNonPaddy_2010-12-31.map
interflowIni     = /projects/0/dfguu2/scratch/edwinhs/pcrglobwb2_output_05min_deltares_subsidence_version_201810XX/natural_spinup_only_correct_soil/begin_from_1955/global/states/interflow_irrNonPaddy_2010-12-31.map




[groundwaterOptions]

debugWaterBalance = True

groundwaterPropertiesNC = global_05min/groundwater/properties/groundwaterProperties5ArcMin.nc
# The file will containspecificYield (m3.m-3), kSatAquifer, recessionCoeff (day-1)
#
# - minimum value for groundwater recession coefficient (day-1) 
minRecessionCoeff = 1.0e-4

# some options for constraining groundwater abstraction
limitFossilGroundWaterAbstraction      = True
estimateOfRenewableGroundwaterCapacity = 0.0
estimateOfTotalGroundwaterThickness    = global_05min/groundwater/aquifer_thickness_estimate/thickness_05min.map
# minimum and maximum total groundwater thickness 
minimumTotalGroundwaterThickness       = 100.
maximumTotalGroundwaterThickness       = 1000.

# annual pumping capacity for each region (unit: billion cubic meter per year), should be given in a netcdf file
#~ pumpingCapacityNC = global_30min/waterUse/groundwater_pumping_capacity/regional_abstraction_limit.nc
# - using Rens's version:
pumpingCapacityNC = /projects/0/dfguu/users/rens/data/GLO/limit_groundwater_abstraction/regional_groundwater_pumping_capacity_Historical_1970-2010_30min.nc

# initial conditions:
storGroundwaterIni                        = /projects/0/dfguu2/scratch/edwinhs/pcrglobwb2_output_05min_deltares_subsidence_version_201810XX/natural_spinup_only_correct_soil/begin_from_1955/global/states/storGroundwater_2010-12-31.map
#
storGroundwaterFossilIni                  = /projects/0/dfguu2/scratch/edwinhs/pcrglobwb2_output_05min_deltares_subsidence_version_201810XX/natural_spinup_only_correct_soil/begin_from_1955/global/states/storGroundwaterFossil_2010-12-31.map
# - This is actually the same as storGroundwaterFossilIni = Maximum.
#
# additional initial conditions for pumping behaviors
avgNonFossilGroundwaterAllocationLongIni  = /projects/0/dfguu2/scratch/edwinhs/pcrglobwb2_output_05min_deltares_subsidence_version_201810XX/natural_spinup_only_correct_soil/begin_from_1955/global/states/avgNonFossilGroundwaterAllocationLong_2010-12-31.map
avgNonFossilGroundwaterAllocationShortIni = /projects/0/dfguu2/scratch/edwinhs/pcrglobwb2_output_05min_deltares_subsidence_version_201810XX/natural_spinup_only_correct_soil/begin_from_1955/global/states/avgNonFossilGroundwaterAllocationShort_2010-12-31.map
avgTotalGroundwaterAbstractionIni         = /projects/0/dfguu2/scratch/edwinhs/pcrglobwb2_output_05min_deltares_subsidence_version_201810XX/natural_spinup_only_correct_soil/begin_from_1955/global/states/avgTotalGroundwaterAbstraction_2010-12-31.map
avgTotalGroundwaterAllocationLongIni      = /projects/0/dfguu2/scratch/edwinhs/pcrglobwb2_output_05min_deltares_subsidence_version_201810XX/natural_spinup_only_correct_soil/begin_from_1955/global/states/avgTotalGroundwaterAllocationLong_2010-12-31.map
avgTotalGroundwaterAllocationShortIni     = /projects/0/dfguu2/scratch/edwinhs/pcrglobwb2_output_05min_deltares_subsidence_version_201810XX/natural_spinup_only_correct_soil/begin_from_1955/global/states/avgTotalGroundwaterAllocationShort_2010-12-31.map
#
# additional initial conditions for MODFLOW run 
relativeGroundwaterHeadIni                = /projects/0/dfguu2/scratch/edwinhs/pcrglobwb2_output_05min_deltares_subsidence_version_201810XX/natural_spinup_only_correct_soil/begin_from_1955/global/states/relativeGroundwaterHead_2010-12-31.map
baseflowIni                               = /projects/0/dfguu2/scratch/edwinhs/pcrglobwb2_output_05min_deltares_subsidence_version_201810XX/natural_spinup_only_correct_soil/begin_from_1955/global/states/baseflow_2010-12-31.map

# zonal IDs (scale) at which zonal allocation of groundwater is performed  
allocationSegmentsForGroundwater = global_05min/waterUse/abstraction_zones/abstraction_zones_30min_05min.map


# PS: You do NOT use the following option to be consistent with your natural runs where you somehow used a wrong key name, minTransimissivityForProductiveAquifer. The correct one is minimumTransimissivityForProductiveAquifer.
########################################################################################################################################################
#~ # assumption for the minimum transmissivity value (unit: m2/day) that can be extracted (via capillary rise and/or groundwater abstraction) - optional
#~ minimumTransimissivityForProductiveAquifer    = 50.0
#~ # - if None, abstraction and/or capillary rise can always occur everywhere and unlimited
########################################################################################################################################################

# maximum dailly groundwater abstraction rate (m/day) 
maximumDailyGroundwaterAbstraction       = 0.050
maximumDailyFossilGroundwaterAbstraction = 0.050

# an option for not limitting domestic, industrial and livestock abstraction with pumping capacity
doNotLimitGroundwaterDomesticIndustrialLivestockDemandWithPumpingCapacity = True

[routingOptions]

debugWaterBalance = True

# drainage direction map
lddMap      = global_05min/routing/ldd_and_cell_area/lddsound_05min.map

# cell area (unit: m2)
cellAreaMap = global_05min/routing/ldd_and_cell_area/cellsize05min.correct.map

# routing method:
routingMethod = accuTravelTime

# manning coefficient
manningsN   = 0.04

# Option for flood plain simulation
dynamicFloodPlain = True

# manning coefficient for floodplain
floodplainManningsN = 0.07


# channel gradient
gradient             = global_05min/routing/channel_properties/channel_gradient.map

# constant channel depth 
constantChannelDepth = global_05min/routing/channel_properties/bankfull_depth.map

# constant channel width (optional)
constantChannelWidth = global_05min/routing/channel_properties/bankfull_width.map

# minimum channel width (optional)
minimumChannelWidth  = global_05min/routing/channel_properties/bankfull_width.map

# channel properties for flooding
bankfullCapacity     = None
# - If None, it will be estimated from (bankfull) channel depth (m) and width (m) 


# files for relative elevation (above minimum dem) 
relativeElevationFiles  = global_05min/routing/channel_properties/dzRel%04d.map
relativeElevationLevels = 0.0, 0.01, 0.05, 0.10, 0.20, 0.30, 0.40, 0.50, 0.60, 0.70, 0.80, 0.90, 1.00


# composite crop factors for WaterBodies: 
cropCoefficientWaterNC = global_30min/routing/kc_surface_water/cropCoefficientForOpenWater.nc
minCropWaterKC         = 1.00


# lake and reservoir parameters
onlyNaturalWaterBodies = False
waterBodyInputNC       = global_05min/routing/surface_water_bodies/waterBodies5ArcMin.nc
#~ # - only reservoirs built in 1955 and before are considered in the simulation. 
#~ waterBodyInputNC    = global_05min/routing/surface_water_bodies/certain_year_only/waterBodies5ArcMin_1955.nc


# initial conditions:
#
# number of days (timesteps) that have been performed for spinning up initial conditions in the routing module (i.e. channelStorageIni, avgDischargeLongIni, avgDischargeShortIni, etc.)
timestepsToAvgDischargeIni     = /projects/0/dfguu2/scratch/edwinhs/pcrglobwb2_output_05min_deltares_subsidence_version_201810XX/natural_spinup_only_correct_soil/begin_from_1955/global/states/timestepsToAvgDischarge_2010-12-31.map
# Note that: 
# - maximum number of days (timesteps) to calculate long term average flow values (default: 5 years = 5 * 365 days = 1825)
# - maximum number of days (timesteps) to calculate short term average values (default: 1 month = 1 * 30 days = 30)
#