[globalOptions]

# Set the pcrglobwb output directory in an absolute path.
#~ outputDir = MAIN_OUTPUT_DIR

#~ outputDir = /scratch/depfg/sutan101/pcrglobwb_output_conus/red_w5e5_hamon_gmd-water_demand_develop_for_cartesius/

outputDir    = /scratch-shared/edwinhs/pcrglobwb_output_conus_test/red_w5e5_hamon_gmd-water_demand_develop_for_cartesius/

# Set the input directory map in an absolute path. 
# - The input forcing and parameter directories and files will be relative to this.

#~ # - on eejit
#~ inputDir  = /scratch/depfg/sutan101/data/pcrglobwb_input_arise/develop

# - on cartesius
inputDir     = /projects/0/dfguu/users/edwin/data/pcrglobwb_input_arise/develop/


# Map of clone (must be provided in PCRaster maps)
# - Spatial resolution and coverage are based on this map:
#~ cloneMap = africa_30sec/cloneMaps/version_2020-XX-XX/clone_basins_of_senegal_167_gambia_72.map

#~ cloneMap = conus_30sec/cloneMaps/conus/clone_conus_jarno_extended_30sec_global.map

cloneMap    = conus_30sec/cloneMaps/red_basin/clone_redriver_30sec.map

 
# The area/landmask of interest:
# If None, area/landmask is limited for cells with ldd value. 
landmask    = None
# TODO/FIXME: We set the landmask = None, as the current landmask excludes some parts of lakes located in the border. Note that while making new landmask, please also consider the extent of your forcing (in order to get rid off missing values of forcing that can lead to always-zero temperature cells, and therefore unrealistic snow).


# netcdf attributes for output files:
institution = Department of Physical Geography, Utrecht University
title       = PCR-GLOBWB 2 output (not coupled to MODFLOW), with human factors (non-natural) - MAIN_OUTPUT_DIR
description = by Edwin H. Sutanudjaja (contact: e.h.sutanudjaja@uu.nl), PCR-GLOBWB run with human factors (non-natural) at 30 arcsec resolution - MAIN_OUTPUT_DIR


#~ startTime = STARTING_DATE
#~ endTime   = END_DATE
#~ # Format: YYYY-MM-DD ; The model runs on daily time step.


#~ startTime = 2000-01-01
#~ endTime   = 2019-12-31
#~ # Format: YYYY-MM-DD ; The model runs on daily time step.


startTime    = 2000-01-01
endTime      = 2010-12-31
# Format: YYYY-MM-DD ; The model runs on daily time step.


# spinning up options:
maxSpinUpsInYears    = 20
#~ maxSpinUpsInYears = 5
#~ maxSpinUpsInYears = NUMBER_OF_SPINUP_YEARS
minConvForSoilSto    = 0.0
minConvForGwatSto    = 0.0
minConvForChanSto    = 0.0
minConvForTotlSto    = 0.0

# option/directory for saving the spin-up directory 
spinUpOutputDir = True


[meteoOptions]

precipitationNC       = global_30min_from_gmd_paper_input/meteo/forcing/daily_precipitation_cru_era-interim_2000_to_2010.nc
temperatureNC         = global_30min_from_gmd_paper_input/meteo/forcing/daily_temperature_cru_era-interim_2000_to_2010.nc

# reference potential evaporation+transpiration)
referenceETPotMethod  = Input
refETPotFileNC        = global_30min_from_gmd_paper_input/meteo/forcing/daily_referencePotET_cru_era-interim_2000_to_2010.nc

# initial conditions:
avgAnnualDiurnalDeltaTempIni = 0.0
avgAnnualPrecipitationIni    = 0.0
avgAnnualTemperatureIni      = 0.0


[meteoDownscalingOptions]
                                                                                                                                        
downscalePrecipitation  = False                                                                                                                                   
downscaleTemperature    = True                                                                                                                                  
downscaleReferenceETPot = False                                                                                                                                   
   
# downscaling (based on the digital elevation model):                                                                                                            
highResolutionDEM = global_30sec/landSurface/topography/merit_dem_processed/version_2021-02-XX/maps_covered_with_zero/dem_average_topography_parameters_30sec_february_2021_global_covered_with_zero.nc

# The downscaling will be performed by providing the "cellIds" (meteoDownscaleIds) of lower resolution cells.                                                    
meteoDownscaleIds = global_30sec/meteo/unique_ids/unique_ids_150_arcsec_correct_lats.nc

# lapse rates:                                                                                                                                                   
temperLapseRateNC = global_05min_from_gmd_paper_input/meteo/downscaling_from_30min/temperature_slope.nc                                                                     
precipLapseRateNC = global_05min_from_gmd_paper_input/meteo/downscaling_from_30min/precipitation_slope.nc                                                                   
                                                                                                                                                                 
# downscaling criteria (TODO: remove these):                                                                                                                     
temperatCorrelNC  = global_05min_from_gmd_paper_input/meteo/downscaling_from_30min/temperature_correl.nc                                                                     
precipitCorrelNC  = global_05min_from_gmd_paper_input/meteo/downscaling_from_30min/precipitation_correl.nc                                                                   
	                                                                                                                                                                 
# windows length (unit: arc-degree) for smoothing/averaging forcing data (not recommended):                                                                      
smoothingWindowsLength = 0


[landSurfaceOptions]

debugWaterBalance = True

numberOfUpperSoilLayers = 2

# topography parameters
# - they are used for all land cover types, unless they are are defined in certain land cover type options 
#   (e.g. different/various soil types for agriculture areas)  
topographyNC = global_30sec/landSurface/topography/merit_dem_processed/version_2021-02-XX/maps_covered_with_zero/topography_parameters_30sec_february_2021_global_covered_with_zero.nc

soilPropertiesNC = None
# - if soilPropertiesNC = None, the following soil parameters will be used
firstStorDepth       = conus_30sec/landSurface/soil/soilgrids/soilgrids_version_2021-10-XX_conus/layerDepth_average_1_conus_30sec.nc
secondStorDepth      = conus_30sec/landSurface/soil/soilgrids/soilgrids_version_2021-10-XX_conus/layerDepth_average_2_conus_30sec.nc
soilWaterStorageCap1 = conus_30sec/landSurface/soil/soilgrids/soilgrids_version_2021-10-XX_conus/WHC_average_1_conus_30sec.nc
soilWaterStorageCap2 = conus_30sec/landSurface/soil/soilgrids/soilgrids_version_2021-10-XX_conus/WHC_average_2_conus_30sec.nc
airEntryValue1       = conus_30sec/landSurface/soil/soilgrids/soilgrids_version_2021-10-XX_conus/psiAir_average_1_conus_30sec.nc
airEntryValue2       = conus_30sec/landSurface/soil/soilgrids/soilgrids_version_2021-10-XX_conus/psiAir_average_2_conus_30sec.nc
poreSizeBeta1        = conus_30sec/landSurface/soil/soilgrids/soilgrids_version_2021-10-XX_conus/BCH_average_1_conus_30sec.nc
poreSizeBeta2        = conus_30sec/landSurface/soil/soilgrids/soilgrids_version_2021-10-XX_conus/BCH_average_2_conus_30sec.nc
resVolWC1            = conus_30sec/landSurface/soil/soilgrids/soilgrids_version_2021-10-XX_conus/vmcRes_average_1_conus_30sec.nc
resVolWC2            = conus_30sec/landSurface/soil/soilgrids/soilgrids_version_2021-10-XX_conus/vmcRes_average_2_conus_30sec.nc
satVolWC1            = conus_30sec/landSurface/soil/soilgrids/soilgrids_version_2021-10-XX_conus/vmcSat_average_1_conus_30sec.nc
satVolWC2            = conus_30sec/landSurface/soil/soilgrids/soilgrids_version_2021-10-XX_conus/vmcSat_average_2_conus_30sec.nc
KSat1                = conus_30sec/landSurface/soil/soilgrids/soilgrids_version_2021-10-XX_conus/kSat_average_1_conus_30sec.nc
KSat2                = conus_30sec/landSurface/soil/soilgrids/soilgrids_version_2021-10-XX_conus/kSat_average_2_conus_30sec.nc

percolationImp       = global_30sec/landSurface/soil/impeded_drainage/global_30sec_impeded_drainage_permafrost_dsmw_correct_lats.nc


includeIrrigation = True


# land cover classes
landCoverTypes = naturalVegetationAndRainFedCrops,irrPaddy,irrNonPaddy

# we have to correct land cover fractions
noLandCoverFractionCorrection = False


# a pcraster map/value defining irrigation efficiency (dimensionless) - optional
irrigationEfficiency = global_30min_from_gmd_paper_input/waterUse/irrigation/irrigation_efficiency/efficiency.nc


includeDomesticWaterDemand  = True
includeIndustryWaterDemand  = True
includeLivestockWaterDemand = True


# domestic, industrial and livestock water demand data (unit must be in m.day-1)
domesticWaterDemandFile  = global_05min_from_gmd_paper_input/waterUse/waterDemand/domestic/domestic_water_demand_version_april_2015.nc
industryWaterDemandFile  = global_05min_from_gmd_paper_input/waterUse/waterDemand/industry/industry_water_demand_version_april_2015.nc
livestockWaterDemandFile = global_05min_from_gmd_paper_input/waterUse/waterDemand/livestock/livestock_water_demand_version_april_2015.nc


# desalination water supply (maximum/potential/capacity)
desalinationWater = global_05min_from_gmd_paper_input/waterUse/desalination/desalination_water_version_april_2015.nc


# zone IDs (scale) at which allocations of groundwater and surface water (as well as desalinated water) are performed  
allocationSegmentsForGroundSurfaceWater = global_05min_from_gmd_paper_input/waterUse/abstraction_zones/abstraction_zones_60min_05min.nc

# pcraster maps defining the partitioning of groundwater - surface water source 
#
# - predefined surface water - groundwater partitioning for irrigation demand (e.g. based on Siebert, Global Map of Irrigation Areas version 5)
irrigationSurfaceWaterAbstractionFractionData           = global_05min_from_gmd_paper_input/waterUse/source_partitioning/surface_water_fraction_for_irrigation/AEI_SWFRAC.nc
# -- quality map
irrigationSurfaceWaterAbstractionFractionDataQuality    = global_05min_from_gmd_paper_input/waterUse/source_partitioning/surface_water_fraction_for_irrigation/AEI_QUAL.nc
#
# - threshold values defining the preference for surface water source for irrigation purpose
# -- treshold to maximize surface water irrigation use (cells with irrSurfaceWaterAbstractionFraction above this will prioritize irrigation surface water use)
treshold_to_maximize_irrigation_surface_water           = 0.50
# -- treshold to minimize fossil water withdrawal for irrigation (cells with irrSurfaceWaterAbstractionFraction below this have no fossil withdrawal for irrigation)
treshold_to_minimize_fossil_groundwater_irrigation      = 0.70
#
# - predefined surface water - groundwater partitioning for non irrigation demand (e.g. based on McDonald, 2014)
maximumNonIrrigationSurfaceWaterAbstractionFractionData = global_30min_from_gmd_paper_input/waterUse/source_partitioning/surface_water_fraction_for_non_irrigation/max_city_sw_fraction.nc


# option to skip extrapolation
noParameterExtrapolation = True


[naturalVegetationAndRainFedCropsOptions]

name = naturalVegetationAndRainFedCrops
debugWaterBalance = True

# snow module properties
snowModuleType      =  Simple
freezingT           =  0.0
degreeDayFactor     =  0.0055
snowWaterHoldingCap =  0.1
refreezingCoeff     =  0.05

# other paramater values
minTopWaterLayer  = 0.0
minCropKC         = 0.2

cropCoefficientNC = global_30sec/landSurface/landCover/naturalVegetationAndRainFedCrops_version_2021-02-XX/composite-short-n-tall_crop_coefficient.nc
interceptCapNC    = global_30sec/landSurface/landCover/naturalVegetationAndRainFedCrops_version_2021-02-XX/composite-short-n-tall_intercept_capacity.nc
coverFractionNC   = global_30sec/landSurface/landCover/naturalVegetationAndRainFedCrops_version_2021-02-XX/composite-short-n-tall_cover_fraction.nc

landCoverMapsNC   = None
# If NC file is not provided, we have to provide the following pcraster maps:
fracVegCover      = 1.0
minSoilDepthFrac  = 0.99
maxSoilDepthFrac  = 1.01
rootFraction1     = global_30sec/landSurface/landCover/naturalVegetationAndRainFedCrops_version_2021-02-XX/rfrac1_all.nc
rootFraction2     = global_30sec/landSurface/landCover/naturalVegetationAndRainFedCrops_version_2021-02-XX/rfrac2_all.nc	
maxRootDepth      = global_30sec/landSurface/landCover/naturalVegetationAndRainFedCrops_version_2021-02-XX/meanrootdepth_all.nc
# Note: The maxRootDepth is not used for non irrigated land cover types. 	
#
# Parameters for the Arno's scheme:
arnoBeta = None
# If arnoBeta is defined, the soil water capacity distribution is based on this.
# If arnoBeta is NOT defined, maxSoilDepthFrac must be defined such that arnoBeta will be calculated based on maxSoilDepthFrac and minSoilDepthFrac.


# initial conditions:
interceptStorIni = 0.0
snowCoverSWEIni  = 0.0
snowFreeWaterIni = 0.0
topWaterLayerIni = 0.0
storUppIni       = 0.0
storLowIni       = 0.0
interflowIni     = 0.0

noParameterExtrapolation = True


[irrPaddyOptions]

name = irrPaddy
debugWaterBalance = True

# snow module properties
snowModuleType      =  Simple
freezingT           =  0.0
degreeDayFactor     =  0.0055
snowWaterHoldingCap =  0.1
refreezingCoeff     =  0.05
#
landCoverMapsNC  = None
# If NC file is not provided, we have to provide the following values:
#
fracVegCover     = global_30sec/landSurface/landCover/irrigated_fractions/global_estimate_irrigation_paddy_fraction_30sec.nc
minSoilDepthFrac = 0.99
maxSoilDepthFrac = 1.01
rootFraction1    = global_30min_from_gmd_paper_input/landSurface/landCover/irrPaddy/rfrac1_paddy.nc
rootFraction2    = global_30min_from_gmd_paper_input/landSurface/landCover/irrPaddy/rfrac2_paddy.nc
maxRootDepth     = 0.5
#
# Parameters for the Arno's scheme:
arnoBeta = None
# If arnoBeta is defined, the soil water capacity distribution is based on this.
# If arnoBeta is NOT defined, maxSoilDepthFrac must be defined such that arnoBeta will be calculated based on maxSoilDepthFrac and minSoilDepthFrac.
#
# other paramater values
minTopWaterLayer = 0.05
minCropKC        = 0.2
cropDeplFactor   = 0.2
minInterceptCap  = 0.0002

cropCoefficientNC = global_30min_from_gmd_paper_input/landSurface/landCover/irrPaddy/Global_CropCoefficientKc-IrrPaddy_30min.nc


# initial conditions:
interceptStorIni = 0.0
snowCoverSWEIni  = 0.0
snowFreeWaterIni = 0.0
topWaterLayerIni = 0.0
storUppIni       = 0.0
storLowIni       = 0.0
interflowIni     = 0.0

noParameterExtrapolation = True


[irrNonPaddyOptions]

name = irrNonPaddy
debugWaterBalance = True

# snow module properties
snowModuleType      =  Simple
freezingT           =  0.0
degreeDayFactor     =  0.0055
snowWaterHoldingCap =  0.1
refreezingCoeff     =  0.05
#
landCoverMapsNC  = None
# If NC file is not provided, we have to provide the following values:
fracVegCover     = global_30sec/landSurface/landCover/irrigated_fractions/global_estimate_irrigation_non_paddy_fraction_30sec.nc
minSoilDepthFrac = 0.99
maxSoilDepthFrac = 1.01
rootFraction1    = global_30min_from_gmd_paper_input/landSurface/landCover/irrNonPaddy/rfrac1_nonpaddy.nc
rootFraction2    = global_30min_from_gmd_paper_input/landSurface/landCover/irrNonPaddy/rfrac2_nonpaddy.nc
maxRootDepth     = 1.0
#
# Parameters for the Arno's scheme:
arnoBeta = None
# If arnoBeta is defined, the soil water capacity distribution is based on this.
# If arnoBeta is NOT defined, maxSoilDepthFrac must be defined such that arnoBeta will be calculated based on maxSoilDepthFrac and minSoilDepthFrac.
#
# other paramater values
minTopWaterLayer = 0.0
minCropKC        = 0.2
cropDeplFactor   = 0.5
minInterceptCap  = 0.0002

cropCoefficientNC = global_30min_from_gmd_paper_input/landSurface/landCover/irrNonPaddy/Global_CropCoefficientKc-IrrNonPaddy_30min.nc

# initial conditions:

interceptStorIni = 0.0
snowCoverSWEIni  = 0.0
snowFreeWaterIni = 0.0
topWaterLayerIni = 0.0
storUppIni       = 0.0
storLowIni       = 0.0
interflowIni     = 0.0

noParameterExtrapolation = True


[groundwaterOptions]

debugWaterBalance = True

#~ groundwaterPropertiesNC = global_05min/groundwater/properties/groundwaterProperties5ArcMin.nc
groundwaterPropertiesNC    = None
#
recessionCoeff = global_30sec/groundwater/properties/version_202102XX/recession_coefficient_30sec.nc
kSatAquifer    = global_30sec/groundwater/properties/version_202102XX/k_conductivity_aquifer_filled_30sec.nc
specificYield  = global_30sec/groundwater/properties/version_202102XX/specific_yield_aquifer_filled_30sec.nc
#
# minimum value for groundwater recession coefficient (day-1) 
# - about 11 years
minRecessionCoeff = 0.00025
#~ # - about 27 years
#~ minRecessionCoeff = 1.0e-4

# some options for constraining groundwater abstraction
limitFossilGroundWaterAbstraction      = True
estimateOfRenewableGroundwaterCapacity = 0.0
estimateOfTotalGroundwaterThickness    = global_30sec/groundwater/aquifer_thickness_estimate/version_2020-09-XX/thickness_05min_remapbil_to_30sec_filled_with_pcr_correct_lat.nc
# minimum and maximum total groundwater thickness 
minimumTotalGroundwaterThickness       = 100.
maximumTotalGroundwaterThickness       = None

doNotExtrapolateThickness = True
noParameterExtrapolation  = True

# annual pumping capacity for each region (unit: billion cubic meter per year), should be given in a netcdf file
pumpingCapacityNC    = global_30min_from_gmd_paper_input/waterUse/groundwater_pumping_capacity/regional_abstraction_limit.nc

# zonal IDs (scale) at which zonal allocation of groundwater is performed  
allocationSegmentsForGroundwater    = global_05min_from_gmd_paper_input/waterUse/abstraction_zones/abstraction_zones_30min_05min.nc


# initial conditions:
storGroundwaterIni                           = 0.0
#~ storGroundwaterIni                        = ESTIMATE_FROM_GROUNDWATER_RECHARGE_RATE

storGroundwaterFossilIni                     = Maximum

avgNonFossilGroundwaterAllocationLongIni     = 0.0
avgNonFossilGroundwaterAllocationShortIni    = 0.0
avgTotalGroundwaterAbstractionIni            = 0.0
avgTotalGroundwaterAllocationLongIni         = 0.0
avgTotalGroundwaterAllocationShortIni        = 0.0
relativeGroundwaterHeadIni                   = 0.0
baseflowIni                                  = 0.0

# we need avgStorGroundwater for a non linear groundwater reservoir
avgStorGroundwaterIni                        = 0.0


# option to start with the maximum value for storGroundwaterFossilIni (this will set/lead to storGroundwaterFossilIni = Maximum ; overwrite/overrule existing storGroundwaterFossilIni)
#~ useMaximumStorGroundwaterFossilIni        = True
#~ useMaximumStorGroundwaterFossilIni        = False
useMaximumStorGroundwaterFossilIni           = USE_MAXIMUM_STOR_GROUNDWATER_FOSSIL_INI


# option to start with the value of storGroundwaterIni estimated from groundwater recharge (this will set/lead to storGroundwaterIni = ESTIMATE_FROM_GROUNDWATER_RECHARGE_RATE)
#~ estimateStorGroundwaterIniFromRecharge    = True
#~ estimateStorGroundwaterIniFromRecharge    = False
#~ estimateStorGroundwaterIniFromRecharge    = ESTIMATE_STOR_GROUNDWATER_INI_FROM_RECHARGE
#~ dailyGroundwaterRechargeIni               = DAILY_GROUNDWATER_RECHARGE_INI


[routingOptions]

debugWaterBalance = True

# drainage direction map
lddMap      = global_30sec/routing/surface_water_bodies/version_2020-05-XX/lddsound_30sec_version_202005XX_correct_lat.nc

# cell area (unit: m2)
cellAreaMap = global_30sec/routing/cell_area/cdo_grid_area_30sec_map_correct_lat.nc

# routing method:
routingMethod = accuTravelTime

# manning coefficient
manningsN   = 0.04

# Option for flood plain simulation
dynamicFloodPlain = True

# manning coefficient for floodplain
floodplainManningsN = 0.07


# channel gradient
gradient             = global_30sec/routing/channel_properties/version_2021-02-XX/maps_covered_with_zero/channel_gradient_channel_parameters_30sec_february_2021_global_covered_with_zero.nc

# constant channel depth 
constantChannelDepth = global_30sec/routing/channel_properties/version_2021-02-XX/maps_covered_with_zero/bankfull_depth_channel_parameters_30sec_february_2021_global_covered_with_zero.nc

# constant channel width (optional)
constantChannelWidth = global_30sec/routing/channel_properties/version_2021-02-XX/maps_covered_with_zero/bankfull_width_channel_parameters_30sec_february_2021_global_covered_with_zero.nc

# minimum channel width (optional)
minimumChannelWidth  = global_30sec/routing/channel_properties/version_2021-02-XX/maps_covered_with_zero/bankfull_width_channel_parameters_30sec_february_2021_global_covered_with_zero.nc

# channel properties for flooding
bankfullCapacity     = None
# - If None, it will be estimated from (bankfull) channel depth (m) and width (m) 

# files for relative elevation (above minimum dem) 
relativeElevationFiles  = global_30sec/landSurface/topography/merit_dem_processed/version_2021-02-XX/maps_covered_with_zero/dzRel%04d_topography_parameters_30sec_february_2021_global_covered_with_zero.nc
relativeElevationLevels = 0.0, 0.01, 0.05, 0.10, 0.20, 0.30, 0.40, 0.50, 0.60, 0.70, 0.80, 0.90, 1.00


# composite crop factors for WaterBodies: 
cropCoefficientWaterNC = global_30min_from_gmd_paper_input/routing/kc_surface_water/cropCoefficientForOpenWater.nc
minCropWaterKC         = 1.00


# lake and reservoir parameters
includeWaterBodies        = True
waterBodyInputNC          = global_30sec/routing/surface_water_bodies/version_2020-05-XX/lakes_and_reservoirs_30sec_global_2019_version_202005XX.nc
#~ fracWaterInp           = None
#~ waterBodyIds           = None
#~ waterBodyTyp           = None
#~ resMaxCapInp           = None
#~ resSfAreaInp           = None
onlyNaturalWaterBodies    = False


# initial conditions:
waterBodyStorageIni            = 0.0
channelStorageIni              = 0.0
readAvlChannelStorageIni       = 0.0
avgDischargeLongIni            = 0.0
avgDischargeShortIni           = 0.0
m2tDischargeLongIni            = 0.0
avgBaseflowLongIni             = 0.0
riverbedExchangeIni            = 0.0
subDischargeIni                = 0.0
avgLakeReservoirInflowShortIni = 0.0
avgLakeReservoirOutflowLongIni = 0.0
timestepsToAvgDischargeIni     = 0.0


[reportingOptions]

# landmask for reporting
landmask_for_reporting = None

# output files that will be written in the disk in netcdf files:
# - daily resolution
outDailyTotNC    = discharge,totalRunoff,gwRecharge,totalGroundwaterAbstraction,surfaceWaterStorage,temperature,precipitation,referencePotET,satDegUpp,satDegLow,satDegTotal,totalEvaporation,channelStorage,dynamicFracWat,floodVolume,floodDepth,surfaceWaterLevel
#~ outDailyTotNC = discharge,totalRunoff
# - monthly resolution
outMonthTotNC = actualET,irrPaddyWaterWithdrawal,irrNonPaddyWaterWithdrawal,domesticWaterWithdrawal,industryWaterWithdrawal,livestockWaterWithdrawal,runoff,totalRunoff,baseflow,directRunoff,interflowTotal,totalGroundwaterAbstraction,desalinationAbstraction,surfaceWaterAbstraction,nonFossilGroundwaterAbstraction,fossilGroundwaterAbstraction,irrGrossDemand,nonIrrGrossDemand,totalGrossDemand,nonIrrWaterConsumption,nonIrrReturnFlow,precipitation,gwRecharge,surfaceWaterInf,referencePotET,totalEvaporation,totalPotentialEvaporation,totLandSurfaceActuaET,totalLandSurfacePotET,waterBodyActEvaporation,waterBodyPotEvaporation
outMonthAvgNC = discharge,temperature,dynamicFracWat,surfaceWaterStorage,interceptStor,snowFreeWater,snowCoverSWE,topWaterLayer,storUppTotal,storLowTotal,storGroundwater,storGroundwaterFossil,totalActiveStorageThickness,totalWaterStorageThickness,satDegUpp,satDegLow,channelStorage,waterBodyStorage
outMonthEndNC = storGroundwater,storGroundwaterFossil,waterBodyStorage,channelStorage,totalWaterStorageThickness,totalActiveStorageThickness
# - annual resolution
outAnnuaTotNC = totalEvaporation,precipitation,gwRecharge,totalRunoff,baseflow,desalinationAbstraction,surfaceWaterAbstraction,nonFossilGroundwaterAbstraction,fossilGroundwaterAbstraction,totalGroundwaterAbstraction,totalAbstraction,irrGrossDemand,nonIrrGrossDemand,totalGrossDemand,nonIrrWaterConsumption,nonIrrReturnFlow,runoff,actualET,irrPaddyWaterWithdrawal,irrNonPaddyWaterWithdrawal,irrigationWaterWithdrawal,domesticWaterWithdrawal,industryWaterWithdrawal,livestockWaterWithdrawal,precipitation_at_irrigation,netLqWaterToSoil_at_irrigation,evaporation_from_irrigation,transpiration_from_irrigation,referencePotET
outAnnuaAvgNC = temperature,discharge,surfaceWaterStorage,waterBodyStorage,interceptStor,snowFreeWater,snowCoverSWE,topWaterLayer,storUppTotal,storLowTotal,storGroundwater,storGroundwaterFossil,totalWaterStorageThickness,satDegUpp,satDegLow,channelStorage,waterBodyStorage,fractionWaterBodyEvaporation,fractionTotalEvaporation,fracSurfaceWaterAllocation,fracDesalinatedWaterAllocation,gwRecharge
outAnnuaEndNC = surfaceWaterStorage,interceptStor,snowFreeWater,snowCoverSWE,topWaterLayer,storUppTotal,storLowTotal,storGroundwater,storGroundwaterFossil,totalWaterStorageThickness
# - monthly and annual maxima
outMonthMaxNC = channelStorage,dynamicFracWat,floodVolume,floodDepth,surfaceWaterLevel,discharge,totalRunoff
outAnnuaMaxNC = channelStorage,dynamicFracWat,floodVolume,floodDepth,surfaceWaterLevel,discharge,totalRunoff

#~ # netcdf format and zlib setup
#~ formatNetCDF = NETCDF4
#~ zlib = True

