[globalOptions]

# Set the pcrglobwb output directory in an absolute path.
#~ outputDir = /rds/general/user/esutanud/projects/arise/live/HydroModelling/edwin/pcrglobwb_output_africa/version_2021-05-31/africa_05min/africa_with_parallelization_accutraveltime/
outputDir    = MAIN_OUTPUT_DIR


# Set the input directory map in an absolute path. 
# - The input forcing and parameter directories and files will be relative to this.
#~ inputDir  = /scratch/depfg/sutan101/data/pcrglobwb_input_arise/develop/
#~ inputDir  = /lustre1/0/einf1079/edwin/data/pcrglobwb_input_arise/develop/
inputDir     = /rds/general/user/esutanud/projects/arise/live/HydroModelling/edwin/data/pcrglobwb_input_arise/develop/

# Map of clone (must be provided in PCRaster maps)
# - Spatial resolution and coverage are based on this map:
#~ cloneMap  = africa_05min/cloneMaps/version_2021-05-27/africa/05min_50_cells/mask/mask_2.map
#~ cloneMap  = africa_05min/cloneMaps/version_2021-05-27/landmask_africa/landmask_05min_africa_version_20210526.map
cloneMap     = africa_05min/cloneMaps/version_2021-05-27/africa/05min_50_cells/mask/mask_%i.map
 
# The area/landmask of interest:
# If None, area/landmask is limited for cells with ldd value. 
#~ landmask  = africa_05min/cloneMaps/version_2021-05-27/landmask_africa/landmask_05min_africa_version_20210526.map
landmask     = africa_05min/cloneMaps/version_2021-05-27/africa/05min_50_cells/mask/mask_%i.map


# netcdf attributes for output files:
institution = Department of Physical Geography, Utrecht University
title       = PCR-GLOBWB 2 output (not coupled to MODFLOW), with human factors (non-natural)
description = by Edwin H. Sutanudjaja (contact: e.h.sutanudjaja@uu.nl), PCR-GLOBWB run with human factors (non-natural)


#~ startTime = 1981-01-01
#~ endTime   = 2019-12-31
#~ # Format: YYYY-MM-DD ; The model runs on daily time step.

startTime = STARTING_DATE
endTime   = END_DATE


# spinning up options:
#~ maxSpinUpsInYears = 15
maxSpinUpsInYears    = 1
minConvForSoilSto    = 0.0
minConvForGwatSto    = 0.0
minConvForChanSto    = 0.0
minConvForTotlSto    = 0.0

# option/directory for saving the spin-up directory 
spinUpOutputDir = True


[meteoOptions]


# Set the forcing precipitation file (may be defined relative to inputDir)
precipitationNC = /rds/general/user/esutanud/projects/arise/live/HydroModelling/edwin/data/meteo_arise/chirps_africa/300_arcsec_5min/africa_chirps-v2.0_1981-ONLY_p05_remapcon-150-arcsec_daily_then_remapcon_to_300-arsec.nc
# TODO: We have to change this to the complete CHIRPS file. 

# variable name in the forcing file
precipitationVariableName = precip


# temperature
temperatureNC = /rds/general/user/esutanud/projects/arise/live/HydroModelling/edwin/data/meteo_arise/era5land_africa/africa_merged/1981-2019/daily_300sec_5min/africa_era5-land_daily_t2m-average_rempacon-300-arcsec_daily.nc
temperatureVariableName = t2m


# Method to calculate referencePotETP (reference potential evaporation+transpiration)
# options are "Hamon" and "Input" ; If "Input", the netcdf input file must be given:
referenceETPotMethod = Penman-Monteith
refETPotFileNC       = None

#~ referenceEPotVariableName = potentialEvaporation



# conversion constants and factors to correct forcing values (optional) so that the units are in m.day-1 and degree Celcius                                                                                                           
precipitationConstant    = 0.0
precipitationFactor      = 0.001
temperatureConstant      = -273.15
temperatureFactor        = 1.0
#~ referenceEPotConstant = 0.0
#~ referenceEPotFactor   = 1.0


# extra meteo variables for calculating reference potential evaporation based on Penman-Monteith (optional)
#
# - 10 m wind speed, unit: m.s-1
wind_speed_10m              = /rds/general/user/esutanud/projects/arise/live/HydroModelling/edwin/data/meteo_arise/era5land_africa/africa_merged/1981-2019/daily_300sec_5min/africa_era5-land_daily_wind10m-avg_rempacon-300-arcsec_daily.nc
#~ # - if wind_speed_10m is None, it will be estimated from u and v components
#~ wind_speed_10m_u_comp    = None
#~ wind_speed_10m_v_comp    = None
#
# - atmospheric pressure, unit: Pascal
atmospheric_pressure        = /rds/general/user/esutanud/projects/arise/live/HydroModelling/edwin/data/meteo_arise/era5land_africa/africa_merged/1981-2019/daily_300sec_5min/africa_era5-land_daily_spressu-avg_rempacon-300-arcsec_daily.nc
#
# - extraterestrial radiation, unit: J.m-2.day-1
extraterestrial_radiation   = None
# - if extraterestrial_radiation is None, it will be calculated based on day length, latitude, day angle and day length

# - actual shortwave (solar) radiation, unit: J.m-2.day-1
shortwave_radiation         = None
# - if shortwave_radiation = None, actual shortwave (solar) radiation can be estimated from net radiation and albedo: ssrd = ssr / (1 - albedo) 
surface_net_solar_radiation = /rds/general/user/esutanud/projects/arise/live/HydroModelling/edwin/data/meteo_arise/era5land_africa/africa_merged/1981-2019/daily_300sec_5min/africa_era5-land_daily_total-ssrad_rempacon-300-arcsec_daily.nc
albedo                      = /rds/general/user/esutanud/projects/arise/live/HydroModelling/edwin/data/meteo_arise/era5land_africa/africa_merged/1981-2019/daily_300sec_5min/africa_era5-land_daily_fal-average_rempacon-300-arcsec_daily.nc
#
# - 2 m dew point temperature (average), unit: degree Celcius  
dewpoint_temperature_avg    = /rds/general/user/esutanud/projects/arise/live/HydroModelling/edwin/data/meteo_arise/era5land_africa/africa_merged/1981-2019/daily_300sec_5min/africa_era5-land_daily_d2m-average_rempacon-300-arcsec_daily.nc
#

# conversion constants and factors to correct forcing values (optional) so that the units are in m.day-1 (precipitation), degree Celcius (temperature), Pascal (pressure), m.s-1, and J.m-2.day-1 (radiation)
consta_for_dewpoint_temperature_avg = -273.15                                                                                                      
factor_for_dewpoint_temperature_avg = 1.0 


# cell area (unit: m2)
cellAreaMap    = global_05min/routing/cell_area/cdo_gridarea_clone_global_05min_correct_lats.nc


#~ # option to call the meteo/forcing method only
#~ callMeteoOnly = True
#~ # - TODO: Please check whether this is correct.

# initial conditions:
avgAnnualDiurnalDeltaTempIni = MAIN_INITIAL_STATE_FOLDER/avgAnnualDiurnalDeltaTemp_DATE_FOR_INITIAL_STATES.map
avgAnnualPrecipitationIni    = MAIN_INITIAL_STATE_FOLDER/avgAnnualPrecipitation_DATE_FOR_INITIAL_STATES.map
avgAnnualTemperatureIni      = MAIN_INITIAL_STATE_FOLDER/avgAnnualTemperature_DATE_FOR_INITIAL_STATES.map


# - for debugging
#~ outDailyTotNC = precipitation_before_downscaling,temperature_before_downscaling,referencePotET_before_downscaling,cellArea,avgAnnualPrecipitation        
outDailyTotNC = None        
outMonthTotNC = None 
outMonthAvgNC = None
outMonthEndNC = None
outAnnuaTotNC = None
outAnnuaAvgNC = None
outAnnuaEndNC = None


[landSurfaceOptions]

debugWaterBalance = True

numberOfUpperSoilLayers = 2

# topography parameters
# - they are used for all land cover types, unless they are are defined in certain land cover type options 
#   (e.g. different/various soil types for agriculture areas)  
topographyNC = global_05min/landSurface/topography/version_202104XX_from_merit_dem/maps_covered_with_zero/topography_parameters_5min_april_2021_global_covered_with_zero.nc
# TODO: Make sure that the soil files are consistent among the resolutions.

soilPropertiesNC = global_05min/landSurface/soil/version_2020-06-23_resampled_from_uly_06min/soilgrids_properties_ulysses_6arcmin_filled_remapbil_to_5_arcmin.nc
# TODO: Make sure that the soil files are consistent among the resolutions.

includeIrrigation = True

#~ # netcdf time series for historical expansion of irrigation areas (unit: hectares). 
#~ # Note: The resolution of this map must be consisten with the resolution of cellArea. 
#~ historicalIrrigationArea = global_05min/waterUse/irrigation/irrigated_areas/irrigationArea05ArcMin.nc
#~ # TODO: Update this using fraction from Louise

# land cover classes
landCoverTypes = forest,grassland,irrPaddy,irrNonPaddy
# TODO: Double check whether all land cover parameters consistent among resolutions.


# we have to correct land cover fractions
noLandCoverFractionCorrection = False


# a pcraster map/value defining irrigation efficiency (dimensionless) - optional
irrigationEfficiency = global_30min_from_gmd_paper_input/waterUse/irrigation/irrigation_efficiency/efficiency.nc


includeDomesticWaterDemand  = True
includeIndustryWaterDemand  = True
includeLivestockWaterDemand = True


# domestic, industrial and livestock water demand data (unit must be in m.day-1)
domesticWaterDemandFile  = global_05min_from_gmd_paper_input/waterUse/waterDemand/domestic/domestic_water_demand_version_april_2015.nc
industryWaterDemandFile  = global_05min_from_gmd_paper_input/waterUse/waterDemand/industry/industry_water_demand_version_april_2015.nc
livestockWaterDemandFile = global_05min_from_gmd_paper_input/waterUse/waterDemand/livestock/livestock_water_demand_version_april_2015.nc


# desalination water supply (maximum/potential/capacity)
desalinationWater = global_05min_from_gmd_paper_input/waterUse/desalination/desalination_water_version_april_2015.nc


# zone IDs (scale) at which allocations of groundwater and surface water (as well as desalinated water) are performed  
allocationSegmentsForGroundSurfaceWater    = global_05min_from_gmd_paper_input/waterUse/abstraction_zones/abstraction_zones_60min_05min.nc

# pcraster maps defining the partitioning of groundwater - surface water source 
#
# - predefined surface water - groundwater partitioning for irrigation demand (e.g. based on Siebert, Global Map of Irrigation Areas version 5)
irrigationSurfaceWaterAbstractionFractionData           = global_05min_from_gmd_paper_input/waterUse/source_partitioning/surface_water_fraction_for_irrigation/AEI_SWFRAC.nc
# -- quality map
irrigationSurfaceWaterAbstractionFractionDataQuality    = global_05min_from_gmd_paper_input/waterUse/source_partitioning/surface_water_fraction_for_irrigation/AEI_QUAL.nc
#
# - threshold values defining the preference for surface water source for irrigation purpose
# -- treshold to maximize surface water irrigation use (cells with irrSurfaceWaterAbstractionFraction above this will prioritize irrigation surface water use)
treshold_to_maximize_irrigation_surface_water           = 0.50
# -- treshold to minimize fossil water withdrawal for irrigation (cells with irrSurfaceWaterAbstractionFraction below this have no fossil withdrawal for irrigation)
treshold_to_minimize_fossil_groundwater_irrigation      = 0.70
#
# - predefined surface water - groundwater partitioning for non irrigation demand (e.g. based on McDonald, 2014)
maximumNonIrrigationSurfaceWaterAbstractionFractionData = global_30min_from_gmd_paper_input/waterUse/source_partitioning/surface_water_fraction_for_non_irrigation/max_city_sw_fraction.nc


# option to skip extrapolation
noParameterExtrapolation = True


[forestOptions]

name = forest
debugWaterBalance = True

# snow module properties
snowModuleType      =  Simple
freezingT           =  0.0
degreeDayFactor     =  0.0055
snowWaterHoldingCap =  0.1
refreezingCoeff     =  0.05

# other paramater values
minTopWaterLayer  = 0.0
minCropKC         = 0.2

cropCoefficientNC = global_05min_from_gmd_paper_input/landSurface/landCover/naturalTall/cropCoefficientForest.nc
interceptCapNC    = global_05min_from_gmd_paper_input/landSurface/landCover/naturalTall/interceptCapInputForest.nc
coverFractionNC   = global_05min_from_gmd_paper_input/landSurface/landCover/naturalTall/coverFractionInputForest.nc

landCoverMapsNC   = None
# If NC file is not provided, we have to provide the following pcraster maps:
fracVegCover      = global_05min_from_gmd_paper_input/landSurface/landCover/naturalTall/vegf_tall.nc
minSoilDepthFrac  = global_30min_from_gmd_paper_input/landSurface/landCover/naturalTall/minf_tall_permafrost.nc
maxSoilDepthFrac  = global_30min_from_gmd_paper_input/landSurface/landCover/naturalTall/maxf_tall.nc
rootFraction1     = global_05min_from_gmd_paper_input/landSurface/landCover/naturalTall/rfrac1_tall.nc
rootFraction2     = global_05min_from_gmd_paper_input/landSurface/landCover/naturalTall/rfrac2_tall.nc	
maxRootDepth      = 1.0
# Note: The maxRootDepth is not used for non irrigated land cover type. 	
#
# Parameters for the Arno's scheme:
arnoBeta = None
# If arnoBeta is defined, the soil water capacity distribution is based on this.
# If arnoBeta is NOT defined, maxSoilDepthFrac must be defined such that arnoBeta will be calculated based on maxSoilDepthFrac and minSoilDepthFrac.


# initial conditions:
interceptStorIni = MAIN_INITIAL_STATE_FOLDER/interceptStor_forest_DATE_FOR_INITIAL_STATES.map
snowCoverSWEIni  = MAIN_INITIAL_STATE_FOLDER/snowCoverSWE_forest_DATE_FOR_INITIAL_STATES.map
snowFreeWaterIni = MAIN_INITIAL_STATE_FOLDER/snowFreeWater_forest_DATE_FOR_INITIAL_STATES.map
topWaterLayerIni = MAIN_INITIAL_STATE_FOLDER/topWaterLayer_forest_DATE_FOR_INITIAL_STATES.map
storUppIni       = MAIN_INITIAL_STATE_FOLDER/storUpp_forest_DATE_FOR_INITIAL_STATES.map
storLowIni       = MAIN_INITIAL_STATE_FOLDER/storLow_forest_DATE_FOR_INITIAL_STATES.map
interflowIni     = MAIN_INITIAL_STATE_FOLDER/interflow_forest_DATE_FOR_INITIAL_STATES.map


noParameterExtrapolation = True


[grasslandOptions]

name = grassland
debugWaterBalance = True

# snow module properties
snowModuleType      =  Simple
freezingT           =  0.0
degreeDayFactor     =  0.0055
snowWaterHoldingCap =  0.1
refreezingCoeff     =  0.05

# other paramater values
minTopWaterLayer = 0.0
minCropKC        = 0.2

cropCoefficientNC = global_05min_from_gmd_paper_input/landSurface/landCover/naturalShort/cropCoefficientGrassland.nc
interceptCapNC    = global_05min_from_gmd_paper_input/landSurface/landCover/naturalShort/interceptCapInputGrassland.nc
coverFractionNC   = global_05min_from_gmd_paper_input/landSurface/landCover/naturalShort/coverFractionInputGrassland.nc

landCoverMapsNC   = None
# If NC file is not provided, we have to provide the following values:
fracVegCover      = global_05min_from_gmd_paper_input/landSurface/landCover/naturalShort/vegf_short.nc
minSoilDepthFrac  = global_30min_from_gmd_paper_input/landSurface/landCover/naturalShort/minf_short_permafrost.nc
maxSoilDepthFrac  = global_30min_from_gmd_paper_input/landSurface/landCover/naturalShort/maxf_short.nc
rootFraction1     = global_05min_from_gmd_paper_input/landSurface/landCover/naturalShort/rfrac1_short.nc
rootFraction2     = global_05min_from_gmd_paper_input/landSurface/landCover/naturalShort/rfrac2_short.nc	
maxRootDepth      = 0.5
# Note: The maxRootDepth is not used for non irrigated land cover type. 	
#
# Parameters for the Arno's scheme:
arnoBeta = None
# If arnoBeta is defined, the soil water capacity distribution is based on this.
# If arnoBeta is NOT defined, maxSoilDepthFrac must be defined such that arnoBeta will be calculated based on maxSoilDepthFrac and minSoilDepthFrac.


# initial conditions:
interceptStorIni = MAIN_INITIAL_STATE_FOLDER/interceptStor_grassland_DATE_FOR_INITIAL_STATES.map
snowCoverSWEIni  = MAIN_INITIAL_STATE_FOLDER/snowCoverSWE_grassland_DATE_FOR_INITIAL_STATES.map
snowFreeWaterIni = MAIN_INITIAL_STATE_FOLDER/snowFreeWater_grassland_DATE_FOR_INITIAL_STATES.map
topWaterLayerIni = MAIN_INITIAL_STATE_FOLDER/topWaterLayer_grassland_DATE_FOR_INITIAL_STATES.map
storUppIni       = MAIN_INITIAL_STATE_FOLDER/storUpp_grassland_DATE_FOR_INITIAL_STATES.map
storLowIni       = MAIN_INITIAL_STATE_FOLDER/storLow_grassland_DATE_FOR_INITIAL_STATES.map
interflowIni     = MAIN_INITIAL_STATE_FOLDER/interflow_grassland_DATE_FOR_INITIAL_STATES.map


noParameterExtrapolation = True



[irrPaddyOptions]

name = irrPaddy
debugWaterBalance = True

# snow module properties
snowModuleType      =  Simple
freezingT           =  0.0
degreeDayFactor     =  0.0055
snowWaterHoldingCap =  0.1
refreezingCoeff     =  0.05
#
landCoverMapsNC  = None
# If NC file is not provided, we have to provide the following values:
#
fracVegCover     = global_05min_from_gmd_paper_input/landSurface/landCover/irrPaddy/fractionPaddy.nc
minSoilDepthFrac = global_30min_from_gmd_paper_input/landSurface/landCover/irrPaddy/minf_paddy_permafrost.nc
maxSoilDepthFrac = global_30min_from_gmd_paper_input/landSurface/landCover/irrPaddy/maxf_paddy.nc
rootFraction1    = global_30min_from_gmd_paper_input/landSurface/landCover/irrPaddy/rfrac1_paddy.nc
rootFraction2    = global_30min_from_gmd_paper_input/landSurface/landCover/irrPaddy/rfrac2_paddy.nc
maxRootDepth     = 0.5
#
# Parameters for the Arno's scheme:
arnoBeta = None
# If arnoBeta is defined, the soil water capacity distribution is based on this.
# If arnoBeta is NOT defined, maxSoilDepthFrac must be defined such that arnoBeta will be calculated based on maxSoilDepthFrac and minSoilDepthFrac.
#
# other paramater values
minTopWaterLayer = 0.05
minCropKC        = 0.2
cropDeplFactor   = 0.2
minInterceptCap  = 0.0002

cropCoefficientNC = global_30min_from_gmd_paper_input/landSurface/landCover/irrPaddy/Global_CropCoefficientKc-IrrPaddy_30min.nc


# initial conditions:
interceptStorIni = MAIN_INITIAL_STATE_FOLDER/interceptStor_irrPaddy_DATE_FOR_INITIAL_STATES.map
snowCoverSWEIni  = MAIN_INITIAL_STATE_FOLDER/snowCoverSWE_irrPaddy_DATE_FOR_INITIAL_STATES.map
snowFreeWaterIni = MAIN_INITIAL_STATE_FOLDER/snowFreeWater_irrPaddy_DATE_FOR_INITIAL_STATES.map
topWaterLayerIni = MAIN_INITIAL_STATE_FOLDER/topWaterLayer_irrPaddy_DATE_FOR_INITIAL_STATES.map
storUppIni       = MAIN_INITIAL_STATE_FOLDER/storUpp_irrPaddy_DATE_FOR_INITIAL_STATES.map
storLowIni       = MAIN_INITIAL_STATE_FOLDER/storLow_irrPaddy_DATE_FOR_INITIAL_STATES.map
interflowIni     = MAIN_INITIAL_STATE_FOLDER/interflow_irrPaddy_DATE_FOR_INITIAL_STATES.map


noParameterExtrapolation = True


[irrNonPaddyOptions]

name = irrNonPaddy
debugWaterBalance = True

# snow module properties
snowModuleType      =  Simple
freezingT           =  0.0
degreeDayFactor     =  0.0055
snowWaterHoldingCap =  0.1
refreezingCoeff     =  0.05
#
landCoverMapsNC  = None
# If NC file is not provided, we have to provide the following values:
fracVegCover     = global_05min_from_gmd_paper_input/landSurface/landCover/irrNonPaddy/fractionNonPaddy.nc
minSoilDepthFrac = global_30min_from_gmd_paper_input/landSurface/landCover/irrNonPaddy/minf_nonpaddy_permafrost.nc
maxSoilDepthFrac = global_30min_from_gmd_paper_input/landSurface/landCover/irrNonPaddy/maxf_nonpaddy.nc
rootFraction1    = global_30min_from_gmd_paper_input/landSurface/landCover/irrNonPaddy/rfrac1_nonpaddy.nc
rootFraction2    = global_30min_from_gmd_paper_input/landSurface/landCover/irrNonPaddy/rfrac2_nonpaddy.nc
maxRootDepth     = 1.0
#
# Parameters for the Arno's scheme:
arnoBeta = None
# If arnoBeta is defined, the soil water capacity distribution is based on this.
# If arnoBeta is NOT defined, maxSoilDepthFrac must be defined such that arnoBeta will be calculated based on maxSoilDepthFrac and minSoilDepthFrac.
#
# other paramater values
minTopWaterLayer = 0.0
minCropKC        = 0.2
cropDeplFactor   = 0.5
minInterceptCap  = 0.0002

cropCoefficientNC = global_30min_from_gmd_paper_input/landSurface/landCover/irrNonPaddy/Global_CropCoefficientKc-IrrNonPaddy_30min.nc


# initial conditions:
interceptStorIni = MAIN_INITIAL_STATE_FOLDER/interceptStor_irrNonPaddy_DATE_FOR_INITIAL_STATES.map
snowCoverSWEIni  = MAIN_INITIAL_STATE_FOLDER/snowCoverSWE_irrNonPaddy_DATE_FOR_INITIAL_STATES.map
snowFreeWaterIni = MAIN_INITIAL_STATE_FOLDER/snowFreeWater_irrNonPaddy_DATE_FOR_INITIAL_STATES.map
topWaterLayerIni = MAIN_INITIAL_STATE_FOLDER/topWaterLayer_irrNonPaddy_DATE_FOR_INITIAL_STATES.map
storUppIni       = MAIN_INITIAL_STATE_FOLDER/storUpp_irrNonPaddy_DATE_FOR_INITIAL_STATES.map
storLowIni       = MAIN_INITIAL_STATE_FOLDER/storLow_irrNonPaddy_DATE_FOR_INITIAL_STATES.map
interflowIni     = MAIN_INITIAL_STATE_FOLDER/interflow_irrNonPaddy_DATE_FOR_INITIAL_STATES.map


noParameterExtrapolation = True


[groundwaterOptions]

debugWaterBalance = True

groundwaterPropertiesNC = None
specificYield  = global_05min/groundwater/properties/version_2021-02-XX/specific_yield_aquifer_05min.map
kSatAquifer    = global_05min/groundwater/properties/version_2021-02-XX/k_conductivity_aquifer_05min.map
recessionCoeff = global_05min/groundwater/properties/version_2021-02-XX/recession_coefficient_05min.map
#
# minimum value for groundwater recession coefficient (day-1) 
# - about 11 years
minRecessionCoeff = 0.00025
#~ # - about 27 years
#~ minRecessionCoeff = 1.0e-4


# some options for constraining groundwater abstraction
limitFossilGroundWaterAbstraction      = True
estimateOfRenewableGroundwaterCapacity = 0.0
estimateOfTotalGroundwaterThickness    = global_05min/groundwater/aquifer_thickness_estimate/version_2020-09-XX/thickness_05min_remapbil_to_30sec_filled_with_pcr_correct_lat_upscaled_back_to_05min_with_remapcon.nc
# minimum and maximum total groundwater thickness 
minimumTotalGroundwaterThickness       = 100.
maximumTotalGroundwaterThickness       = None


doNotExtrapolateThickness = True
noParameterExtrapolation  = True

# annual pumping capacity for each region (unit: billion cubic meter per year), should be given in a netcdf file
pumpingCapacityNC    = global_30min_from_gmd_paper_input/waterUse/groundwater_pumping_capacity/regional_abstraction_limit.nc

# zonal IDs (scale) at which zonal allocation of groundwater is performed  
allocationSegmentsForGroundwater    = global_05min_from_gmd_paper_input/waterUse/abstraction_zones/abstraction_zones_30min_05min.nc
#~ allocationSegmentsForGroundwater = False


# initial conditions:
storGroundwaterIni                           = MAIN_INITIAL_STATE_FOLDER/storGroundwater_DATE_FOR_INITIAL_STATES.map
#~ storGroundwaterIni                        = /rds/general/user/esutanud/projects/arise/live/HydroModelling/edwin/pcrglobwb_output_africa/version_2021-05-28/africa_05min/africa_accutraveltime/netcdf/spin-up/estimate_stor_groundwater/estimate_S3.map

#~ storGroundwaterFossilIni                  = MAIN_INITIAL_STATE_FOLDER/storGroundwaterFossil_DATE_FOR_INITIAL_STATES.map
storGroundwaterFossilIni                     = Maximum

avgNonFossilGroundwaterAllocationLongIni     = MAIN_INITIAL_STATE_FOLDER/avgNonFossilGroundwaterAllocationLong_DATE_FOR_INITIAL_STATES.map
avgNonFossilGroundwaterAllocationShortIni    = MAIN_INITIAL_STATE_FOLDER/avgNonFossilGroundwaterAllocationShort_DATE_FOR_INITIAL_STATES.map
avgTotalGroundwaterAbstractionIni            = MAIN_INITIAL_STATE_FOLDER/avgTotalGroundwaterAbstraction_DATE_FOR_INITIAL_STATES.map
avgTotalGroundwaterAllocationLongIni         = MAIN_INITIAL_STATE_FOLDER/avgTotalGroundwaterAllocationLong_DATE_FOR_INITIAL_STATES.map
avgTotalGroundwaterAllocationShortIni        = MAIN_INITIAL_STATE_FOLDER/avgTotalGroundwaterAllocationShort_DATE_FOR_INITIAL_STATES.map
relativeGroundwaterHeadIni                   = MAIN_INITIAL_STATE_FOLDER/relativeGroundwaterHead_DATE_FOR_INITIAL_STATES.map
baseflowIni                                  = MAIN_INITIAL_STATE_FOLDER/baseflow_DATE_FOR_INITIAL_STATES.map

# we need avgStorGroundwater for a non linear groundwater reservoir
avgStorGroundwaterIni                        = MAIN_INITIAL_STATE_FOLDER/avgStorGroundwater_DATE_FOR_INITIAL_STATES.map


[routingOptions]

debugWaterBalance = True

# drainage direction map
lddMap      = global_05min/routing/surface_water_bodies/version_20210330/lddsound_05min_version_20210330.map

# cell area (unit: m2)
cellAreaMap = global_05min/routing/cell_area/cdo_gridarea_clone_global_05min_correct_lats.nc


# routing method:
routingMethod    = accuTravelTime
#~ routingMethod = kinematicWave

# manning coefficient
manningsN   = 0.04

# Option for flood plain simulation
dynamicFloodPlain = True

# manning coefficient for floodplain
floodplainManningsN = 0.07


# channel gradient
gradient             = global_05min/routing/channel_properties/version_20210401_from_03sec_merit_dem/maps_covered_with_zero/gradient_channel_parameters_5min_april_2021_global_covered_with_zero.nc

# constant channel depth 
constantChannelDepth = global_05min/routing/channel_properties/version_20210401_from_03sec_merit_dem/maps_covered_with_zero/bankfull_depth_channel_parameters_5min_april_2021_global_covered_with_zero.nc

# constant channel width (optional)
constantChannelWidth = global_05min/routing/channel_properties/version_20210401_from_03sec_merit_dem/maps_covered_with_zero/bankfull_width_channel_parameters_5min_april_2021_global_covered_with_zero.nc

# minimum channel width (optional)
minimumChannelWidth  = global_05min/routing/channel_properties/version_20210401_from_03sec_merit_dem/maps_covered_with_zero/bankfull_width_channel_parameters_5min_april_2021_global_covered_with_zero.nc

# channel properties for flooding
bankfullCapacity     = None
# - If None, it will be estimated from (bankfull) channel depth (m) and width (m) 

# files for relative elevation (above minimum dem) 
relativeElevationFiles  = global_05min/landSurface/topography/version_202104XX_from_merit_dem/maps_covered_with_zero/dzRel%04d_topography_parameters_5min_april_2021_global_covered_with_zero.nc
relativeElevationLevels = 0.0, 0.01, 0.05, 0.10, 0.20, 0.30, 0.40, 0.50, 0.60, 0.70, 0.80, 0.90, 1.00


# composite crop factors for WaterBodies: 
cropCoefficientWaterNC = global_30min_from_gmd_paper_input/routing/kc_surface_water/cropCoefficientForOpenWater.nc
minCropWaterKC         = 1.00


# lake and reservoir parameters
includeWaterBodies        = True
waterBodyInputNC          = global_05min/routing/surface_water_bodies/version_20210330/lakes_and_reservoirs_05min_global_2019_version_20210330.nc
#~ fracWaterInp           = None
#~ waterBodyIds           = None
#~ waterBodyTyp           = None
#~ resMaxCapInp           = None
#~ resSfAreaInp           = None
onlyNaturalWaterBodies    = False

# initial conditions:
waterBodyStorageIni            = MAIN_INITIAL_STATE_FOLDER/waterBodyStorage_DATE_FOR_INITIAL_STATES.map
channelStorageIni              = MAIN_INITIAL_STATE_FOLDER/channelStorage_DATE_FOR_INITIAL_STATES.map
readAvlChannelStorageIni       = MAIN_INITIAL_STATE_FOLDER/readAvlChannelStorage_DATE_FOR_INITIAL_STATES.map
avgDischargeLongIni            = MAIN_INITIAL_STATE_FOLDER/avgDischargeLong_DATE_FOR_INITIAL_STATES.map
avgDischargeShortIni           = MAIN_INITIAL_STATE_FOLDER/avgDischargeShort_DATE_FOR_INITIAL_STATES.map
m2tDischargeLongIni            = MAIN_INITIAL_STATE_FOLDER/m2tDischargeLong_DATE_FOR_INITIAL_STATES.map
avgBaseflowLongIni             = MAIN_INITIAL_STATE_FOLDER/avgBaseflowLong_DATE_FOR_INITIAL_STATES.map
riverbedExchangeIni            = MAIN_INITIAL_STATE_FOLDER/riverbedExchange_DATE_FOR_INITIAL_STATES.map
subDischargeIni                = MAIN_INITIAL_STATE_FOLDER/subDischarge_DATE_FOR_INITIAL_STATES.map
avgLakeReservoirInflowShortIni = MAIN_INITIAL_STATE_FOLDER/avgLakeReservoirInflowShort_DATE_FOR_INITIAL_STATES.map
avgLakeReservoirOutflowLongIni = MAIN_INITIAL_STATE_FOLDER/avgLakeReservoirOutflowLong_DATE_FOR_INITIAL_STATES.map
timestepsToAvgDischargeIni     = MAIN_INITIAL_STATE_FOLDER/timestepsToAvgDischarge_DATE_FOR_INITIAL_STATES.map


[reportingOptions]

# landmask for reporting
landmask_for_reporting = None

# output files that will be written in the disk in netcdf files:
# - daily resolution
outDailyTotNC    = discharge,totalRunoff,gwRecharge,totalGroundwaterAbstraction,surfaceWaterStorage,temperature,precipitation,referencePotET,satDegUpp,satDegLow,satDegTotal,totalEvaporation,channelStorage,dynamicFracWat,floodVolume,floodDepth,surfaceWaterLevel
#~ outDailyTotNC = discharge,totalRunoff
# - monthly resolution
outMonthTotNC = actualET,irrPaddyWaterWithdrawal,irrNonPaddyWaterWithdrawal,domesticWaterWithdrawal,industryWaterWithdrawal,livestockWaterWithdrawal,runoff,totalRunoff,baseflow,directRunoff,interflowTotal,totalGroundwaterAbstraction,desalinationAbstraction,surfaceWaterAbstraction,nonFossilGroundwaterAbstraction,fossilGroundwaterAbstraction,irrGrossDemand,nonIrrGrossDemand,totalGrossDemand,nonIrrWaterConsumption,nonIrrReturnFlow,precipitation,gwRecharge,surfaceWaterInf,referencePotET,totalEvaporation,totalPotentialEvaporation,totLandSurfaceActuaET,totalLandSurfacePotET,waterBodyActEvaporation,waterBodyPotEvaporation
outMonthAvgNC = discharge,temperature,dynamicFracWat,surfaceWaterStorage,interceptStor,snowFreeWater,snowCoverSWE,topWaterLayer,storUppTotal,storLowTotal,storGroundwater,storGroundwaterFossil,totalActiveStorageThickness,totalWaterStorageThickness,satDegUpp,satDegLow,channelStorage,waterBodyStorage
outMonthEndNC = storGroundwater,storGroundwaterFossil,waterBodyStorage,channelStorage,totalWaterStorageThickness,totalActiveStorageThickness
# - annual resolution
outAnnuaTotNC = totalEvaporation,precipitation,gwRecharge,totalRunoff,baseflow,desalinationAbstraction,surfaceWaterAbstraction,nonFossilGroundwaterAbstraction,fossilGroundwaterAbstraction,totalGroundwaterAbstraction,totalAbstraction,irrGrossDemand,nonIrrGrossDemand,totalGrossDemand,nonIrrWaterConsumption,nonIrrReturnFlow,runoff,actualET,irrPaddyWaterWithdrawal,irrNonPaddyWaterWithdrawal,irrigationWaterWithdrawal,domesticWaterWithdrawal,industryWaterWithdrawal,livestockWaterWithdrawal,precipitation_at_irrigation,netLqWaterToSoil_at_irrigation,evaporation_from_irrigation,transpiration_from_irrigation,referencePotET
outAnnuaAvgNC = temperature,discharge,surfaceWaterStorage,waterBodyStorage,interceptStor,snowFreeWater,snowCoverSWE,topWaterLayer,storUppTotal,storLowTotal,storGroundwater,storGroundwaterFossil,totalWaterStorageThickness,satDegUpp,satDegLow,channelStorage,waterBodyStorage,fractionWaterBodyEvaporation,fractionTotalEvaporation,fracSurfaceWaterAllocation,fracDesalinatedWaterAllocation,gwRecharge