[globalOptions]

generalOutputFolder = /projects/0/dfguu/users/inge/modflow_coupling_global_natural_Climate/
# also change names in MODFLOW.py
#/scratch-shared/test_modflow_coupling_global/

startTime = 2005-01-01
endTime   = 2051-01-01

firstInitialConditionFolder = /projects/0/dfguu/users/inge/NaturalRun/test_modflow_coupling_global_natural_20052010/merged/states/
firstInitialConditionFolderMF = /home/inge/MODFLOW_coupled_TEST/iniCondClimate/
#firstInitialConditionFolder = /projects/0/dfguu/users/edwin/data/initial_conditions/05min/2015_04_27/non-natural/states/
#firstInitialConditionFolderMF = /projects/0/dfguu/users/inge/inputMAPS/steadyState_MF/
firstInitialConditionFolderAB = /home/inge/MODFLOW_coupled_TEST/extrainputs/
#firstInitialConditionFolder = /projects/0/dfguu/users/edwin/data/initial_conditions/05min/2015_03_27/natural/states/

#cloneAreas = M47,M49
#cloneAreas = M01,M47,M48,M49,M17,M53
#cloneAreas = Global
#cloneAreas = M47,M48,M49
## zonder M29 : anders doet ie het niet  
cloneAreas = M01,M02,M03,M04,M05,M06,M07,M08,M09,M10,M11,M12,M13,M14,M15,M16,M17,M18,M19,M20,M21,M22,M23,M24,M25,M26,M27,M28,M30,M31,M32,M33,M34,M35,M36,M37,M38,M39,M40,M41,M42,M43,M44,M45,M46,M47,M48,M49,M50,M51,M52,M53

# Set the input directory map in an absolute path. 
# - The input forcing and parameter directories will be relative to this.
inputDir  = /projects/0/dfguu/data/hydroworld/

# Map of clone (must be provided in PCRaster maps)
# - Spatial resolution and coverage are based on this map:
cloneMap  = others/05ArcMinCloneMaps/new_masks_from_top/clone_CLONE_MULTIPLE.map

# The area/landmask of interest:
landmask  = others/05ArcMinCloneMaps/new_masks_from_top/mask_CLONE_MULTIPLE.map
# If None, area/landmask is limited for cells with ldd value. 

# Set the output directory in an absolute path --- Note that this is the output folder ONLY for PCR-GLOBWB.  
outputDir = MONTHLY_OUTPUT_FOLDER/CLONE_MULTIPLE

# netcdf attributes for output files:
institution = Department of Physical Geography, Utrecht University
title       = PCR-GLOBWB output
description = test version coupling with MODFLOW (by Inge de Graaf) 

# spinning up options: --- Note that we can NOT do any spin-ups (for coupling PCR-GLOBWB and MODFLOW). Reasonable initial conditions must be provided in 'initialConditionFiles' (see 'generalOptions').
maxSpinUpsInYears = 0
minConvForSoilSto = 1.0
minConvForGwatSto = 0.75
minConvForChanSto = 0.5
minConvForTotlSto = 1.0

[couplingToModflowOptions]

#~ # TODO: Inge has to supply these files from her MODFLOW calculation (all files must be relative to 'generalOutputFolder' in generalOptions).
#~ # - relative groundwater head (unit: m) above the minimum elevation within (5 arc-min) grid
#~ relativeGroundwaterHeadFromModflow = /projects/0/dfguu/users/inge/modflow_coupling_global_natural_Climate//tmp/ini//relativeHead_topMF.map
#~ # - baseflow (unit: m/day)
#~ baseflowFromModflow = /projects/0/dfguu/users/inge/modflow_coupling_global_natural_Climate//tmp/ini//tot_baseflowMF.map
#~ # - storGroundwater (unit: m/day)
#~ storGroundwaterFromModflow = /projects/0/dfguu/users/inge/modflow_coupling_global_natural_Climate//tmp/ini//storage_MF.map
#
# temporary solution - set everything to zero

relativeGroundwaterHeadFromModflow = /projects/0/dfguu/users/inge/modflow_coupling_global_natural_Climate//tmp/ini//relativeHead_topMF.map
baseflowFromModflow                = /projects/0/dfguu/users/inge/modflow_coupling_global_natural_Climate//tmp/ini//tot_baseflowMF.map
storGroundwaterFromModflow         = /projects/0/dfguu/users/inge/modflow_coupling_global_natural_Climate//tmp/ini//storage_GWMF.map

[groundwaterOptions]

debugWaterBalance = True
useMODFLOW = True

groundwaterPropertiesNC = PCRGLOBWB20/input5min/groundwater/groundwaterProperties5ArcMin.nc
# minimum value for groundwater recession coefficient (day-1)
minRecessionCoeff = 1.0e-4

# annual pumping capacity for each region (unit: billion cubic meter per year), should be given in a netcdf file
#pumpingCapacityNC = None
pumpingCapacityNC = /projects/0/dfguu/users/edwin/data/limit_gw_abstraction_half_arc_degree/design_pumping_capacity/regional_abstraction_limit.nc

## TEST PHASE 10-6-2015
# limit groundwater abstractions based on transmissivity
# -boolean map 0 when kD < 50 
# areaForGWAbstr                     = /projects/0/dfguu/users/inge/modflow_coupling_global_natural_Climate//tmp/ini//AreaForGWAbstr_KD.map
# limit groundwater abstarctions baed on aquifer thickness
# -boolean map 0 of no thickness is simulated
areaForGWAbstr = /home/inge/AreaForGWAbstr_D.sca.map

# initial conditions:
storGroundwaterIni = /projects/0/dfguu/users/inge/modflow_coupling_global_natural_Climate//tmp/ini//storGroundwater_xxxx-xx-xx.map
storGroundwaterFossilIni = /projects/0/dfguu/users/inge/modflow_coupling_global_natural_Climate//tmp/ini//storGroundwaterFossil_xxxx-xx-xx.map
#
avgNonFossilGroundwaterAllocationLongIni  = /projects/0/dfguu/users/inge/modflow_coupling_global_natural_Climate//tmp/ini//avgNonFossilGroundwaterAllocationLong_xxxx-xx-xx.map
avgNonFossilGroundwaterAllocationShortIni = /projects/0/dfguu/users/inge/modflow_coupling_global_natural_Climate//tmp/ini//avgNonFossilGroundwaterAllocationShort_xxxx-xx-xx.map
avgTotalGroundwaterAbstractionIni         = /projects/0/dfguu/users/inge/modflow_coupling_global_natural_Climate//tmp/ini//avgTotalGroundwaterAbstraction_xxxx-xx-xx.map        
avgTotalGroundwaterAllocationLongIni      = /projects/0/dfguu/users/inge/modflow_coupling_global_natural_Climate//tmp/ini//avgTotalGroundwaterAllocationLong_xxxx-xx-xx.map   
avgTotalGroundwaterAllocationShortIni     = /projects/0/dfguu/users/inge/modflow_coupling_global_natural_Climate//tmp/ini//avgTotalGroundwaterAllocationShort_xxxx-xx-xx.map   

# For Inge (coupling with MODFLOW), the following options are not relevant 
limitFossilGroundWaterAbstraction = True
minimumTotalGroundwaterThickness = 0.
estimateOfTotalGroundwaterThickness = /projects/0/dfguu/users/edwin/data/aquifer_properties/thickness_05min.map
estimateOfRenewableGroundwaterCapacity = 0.0

[meteoOptions]

# Set the forcing temperature and precipitation files (relative to inputDir)
#precipitationNC = forcing/CMIP5/ISI-MIP-INPUT/HadGEM2-ES/pr_bced_1960-1999_hadgem2-es_historical_1951-2005.nc  
#temperatureNC   = forcing/CMIP5/ISI-MIP-INPUT/HadGEM2-ES/tas_bced_1960-1999_hadgem2-es_historical_1951-2005.nc
precipitationNC  = forcing/CMIP5/ISI-MIP-INPUT/HadGEM2-ES/pr_bced_1960-1999_hadgem2-es_8p5_2006-2099.nc
temperatureNC    = forcing/CMIP5/ISI-MIP-INPUT/HadGEM2-ES/tas_bced_1960-1999_hadgem2-es_8p5_2006-2099.nc

# Method to calculate referencePotETP (reference potential evaporation+transpiration)
referenceETPotMethod = Hamon
# options are "Hamon" and "Input" ; If "Input", the netcdf input file must be given:
refETPotFileNC  = None

[meteoDownscalingOptions]                                                                                                                                        
                                                                                                                                                                 
downscalePrecipitation  = False                                                                                                                                   
downscaleTemperature    = True                                                                                                                                   
downscaleReferenceETPot = False                                                                                                                                   
                                                                                                                                                                 
# downscaling (based on the digital elevation model):                                                                                                            
# The downscaling will be performed by providing the "cellIds" (meteoDownscaleIds) of lower resolution cells.                                                    
meteoDownscaleIds = PCRGLOBWB20/input5min/meteo/downscalingFrom30ArcMin/uniqueIds_30min.map                                                                      
highResolutionDEM = PCRGLOBWB20/input5min/meteo/downscalingFrom30ArcMin/gtopo05min.map                                                                           
                                                                                                                                                                 
# lapse rates:                                                                                                                                                   
temperLapseRateNC = PCRGLOBWB20/input5min/meteo/downscalingFrom30ArcMin/temperature_slope.nc                                                                     
precipLapseRateNC = PCRGLOBWB20/input5min/meteo/downscalingFrom30ArcMin/precipitation_slope.nc                                                                   
                                                                                                                                                                 
# downscaling criteria (TODO: remove these):                                                                                                                     
temperatCorrelNC = PCRGLOBWB20/input5min/meteo/downscalingFrom30ArcMin/temperature_correl.nc                                                                     
precipitCorrelNC = PCRGLOBWB20/input5min/meteo/downscalingFrom30ArcMin/precipitation_correl.nc                                                                   
                                                                                                                                                                 
# windows length (unit: arc-degree) for smoothing/averaging forcing data (not recommended):                                                                      
smoothingWindowsLength = 0                                                                                                                                       


[landSurfaceOptions]
debugWaterBalance = True

numberOfUpperSoilLayers = 2

topographyNC      = PCRGLOBWB20/input5min/landSurface/topo/topoProperties5ArcMin.nc
soilPropertiesNC  = PCRGLOBWB20/input5min/landSurface/soil/v03Jul2013/soilProperties5ArcMin.nc

## swith off ab
##includeIrrigation = False
##includeDomesticWaterDemand  = False
##includeIndustryWaterDemand  = False
##includeLivestockWaterDemand = False

includeIrrigation = True
includeDomesticWaterDemand  = True
includeIndustryWaterDemand  = True
includeLivestockWaterDemand = True

# a pcraster map/value defining irrigation efficiency (dimensionless) - optional
irrigationEfficiency = PCRGLOBWB20/input30min/landSurface/waterDemand/efficiency/efficiency.map

# netcdf time series for historical expansion of irrigation areas (unit: hectares). 
# Note: The resolution of this map must be consisten with the resolution of cellArea. 
#historicalIrrigationArea = PCRGLOBWB20/input5min/landSurface/waterDemand/irrigated_areas/irrigationArea05ArcMin.nc
historicalIrrigationArea = /projects/0/dfguu/users/inge/climateInputs/irrigatedAreas_avg.nc

# domestic and industrial water demand data (unit must be in m.day-1)
#domesticWaterDemandFile  = /projects/0/dfguu/users/edwin/data/data_from_yoshi/water_demand/water_demand_in_m_per_day_05min/domestic/domestic_water_demand_version_april_2015.nc
#industryWaterDemandFile  = /projects/0/dfguu/users/edwin/data/data_from_yoshi/water_demand/water_demand_in_m_per_day_05min/industry/industry_water_demand_version_april_2015.nc
#livestockWaterDemandFile = /projects/0/dfguu/users/edwin/data/data_from_yoshi/water_demand/water_demand_in_m_per_day_05min/livestock/livestock_water_demand_version_april_2015.nc
domesticWaterDemandFile = /projects/0/dfguu/users/inge/climateInputs/domestic_water_demand_avg.nc
industryWaterDemandFile = /projects/0/dfguu/users/inge/climateInputs/industry_water_demand_avg.nc
livestockWaterDemandFile = /projects/0/dfguu/users/inge/climateInputs/livestock_water_demand_avg.nc

# desalination water supply (maximum/potential/capacity)
#desalinationWater = /projects/0/dfguu/users/edwin/data/data_from_yoshi/desalination/desalination_in_m_per_day_05min/desalination_water_version_april_2015.nc
desalinationWater = /projects/0/dfguu/users/inge/climateInputs/desalination_water_avg.nc

# zone IDs (scale) at which allocations of groundwater and surface water (as well as desalinated water) are performed  
allocationSegmentsForGroundSurfaceWater = others/irrigationZones/one_arc_degree/uniqueIds60min.nom.map
#~ allocationSegmentsForGroundSurfaceWater = others/irrigationZones/half_arc_degree/uniqueIds30min.nom.map

# predefined surface water - groundwater partitioning for irrigation demand (based on Siebert, 2010/2013: Global Map of Irrigation Areas version 5):
irrigationSurfaceWaterAbstractionFractionData        = /projects/0/dfguu/users/edwin/data/siebert_map/05min/AEI_SWFRAC.map
irrigationSurfaceWaterAbstractionFractionDataQuality = /projects/0/dfguu/users/edwin/data/siebert_map/05min/AEI_QUAL.map

# predefined surface water - groundwater partitioning for irrigation demand (based on McDonald, 2014):
maximumNonIrrigationSurfaceWaterAbstractionFractionData = /projects/0/dfguu/users/edwin/data/McDonald_water_infrastructure/max_city_sw_fraction.map

# for coupling between MODFLOW and PCR-GLOBWB, limitAbstraction must be True (as the abstraction will be stopped if groundwater head/levels reaching their bottom levels) 
limitAbstraction = True

[forestOptions]

name = forest
debugWaterBalance = True

# snow module properties
snowModuleType      =  Simple
freezingT           =  0.0
degreeDayFactor     =  0.0025
snowWaterHoldingCap =  0.1
refreezingCoeff     =  0.05

# other paramater values
minTopWaterLayer = 0.0
minCropKC        = 0.2
minInterceptCap  = 0.0002

#~ landCoverMapsNC = PCRGLOBWB20/input5min/landCover/forest/forestProperties5ArcMin.nc
landCoverMapsNC  = None
# If NC file is not provided, we have to provide the following pcraster maps:
fracVegCover     = PCRGLOBWB20/input5min/landCover/forest/vegf_tall.map
minSoilDepthFrac = PCRGLOBWB20/input30min/landCover/forest/minf_tall_permafrost.map
maxSoilDepthFrac = PCRGLOBWB20/input30min/landCover/forest/maxf_tall.map
rootFraction1    = PCRGLOBWB20/input5min/landCover/forest/rfrac1_tall.map
rootFraction2    = PCRGLOBWB20/input5min/landCover/forest/rfrac2_tall.map	
maxRootDepth     = PCRGLOBWB20/input5min/landCover/forest/maxrootdepth_tall.map	

# Parameters for the Arno's scheme:
arnoBeta = None
# If arnoBeta is defined, the soil water capacity distribution is based on this.
# If arnoBeta is NOT defined, maxSoilDepthFrac must be defined such that arnoBeta will be calculated based on maxSoilDepthFrac and minSoilDepthFrac.

cropCoefficientNC = PCRGLOBWB20/input5min/landCover_v05Jul2013/Global/netcdf/cropCoefficientForest.nc
interceptCapNC    = PCRGLOBWB20/input5min/landCover_v05Jul2013/Global/netcdf/interceptCapInputForest.nc
coverFractionNC   = PCRGLOBWB20/input5min/landCover_v05Jul2013/Global/netcdf/coverFractionInputForest.nc

# initial conditions:
interceptStorIni = /projects/0/dfguu/users/inge/modflow_coupling_global_natural_Climate//tmp/ini//interceptStor_forest_xxxx-xx-xx.map
snowCoverSWEIni  = /projects/0/dfguu/users/inge/modflow_coupling_global_natural_Climate//tmp/ini//snowCoverSWE_forest_xxxx-xx-xx.map
snowFreeWaterIni = /projects/0/dfguu/users/inge/modflow_coupling_global_natural_Climate//tmp/ini//snowFreeWater_forest_xxxx-xx-xx.map
topWaterLayerIni = /projects/0/dfguu/users/inge/modflow_coupling_global_natural_Climate//tmp/ini//topWaterLayer_forest_xxxx-xx-xx.map
storUppIni       = /projects/0/dfguu/users/inge/modflow_coupling_global_natural_Climate//tmp/ini//storUpp_forest_xxxx-xx-xx.map
storLowIni       = /projects/0/dfguu/users/inge/modflow_coupling_global_natural_Climate//tmp/ini//storLow_forest_xxxx-xx-xx.map
interflowIni     = /projects/0/dfguu/users/inge/modflow_coupling_global_natural_Climate//tmp/ini//interflow_forest_xxxx-xx-xx.map

[grasslandOptions]

name = grassland
debugWaterBalance = True

# snow module properties
snowModuleType      =  Simple
freezingT           =  0.0
degreeDayFactor     =  0.0025
snowWaterHoldingCap =  0.1
refreezingCoeff     =  0.05

# other paramater values
minTopWaterLayer = 0.0
minCropKC        = 0.2
minInterceptCap  = 0.0002

#~ landCoverMapsNC = PCRGLOBWB20/input5min/landCover/grassland/grasslandProperties5ArcMin.nc
landCoverMapsNC  = None
# If NC file is not provided, we have to provide the following values:
fracVegCover     = PCRGLOBWB20/input5min/landCover/grassland/vegf_short.map
minSoilDepthFrac = PCRGLOBWB20/input30min/landCover/grassland/minf_short_permafrost.map
maxSoilDepthFrac = PCRGLOBWB20/input30min/landCover/grassland/maxf_short.map
rootFraction1    = PCRGLOBWB20/input5min/landCover/grassland/rfrac1_short.map
rootFraction2    = PCRGLOBWB20/input5min/landCover/grassland/rfrac2_short.map	
maxRootDepth     = PCRGLOBWB20/input5min/landCover/grassland/maxrootdepth_short.map	
#
# Parameters for the Arno's scheme:
arnoBeta = None
# If arnoBeta is defined, the soil water capacity distribution is based on this.
# If arnoBeta is NOT defined, maxSoilDepthFrac must be defined such that arnoBeta will be calculated based on maxSoilDepthFrac and minSoilDepthFrac.

cropCoefficientNC = PCRGLOBWB20/input5min/landCover_v05Jul2013/Global/netcdf/cropCoefficientGrassland.nc
interceptCapNC    = PCRGLOBWB20/input5min/landCover_v05Jul2013/Global/netcdf/interceptCapInputGrassland.nc
coverFractionNC   = PCRGLOBWB20/input5min/landCover_v05Jul2013/Global/netcdf/coverFractionInputGrassland.nc

# initial conditions:
interceptStorIni = /projects/0/dfguu/users/inge/modflow_coupling_global_natural_Climate//tmp/ini//interceptStor_grassland_xxxx-xx-xx.map
snowCoverSWEIni  = /projects/0/dfguu/users/inge/modflow_coupling_global_natural_Climate//tmp/ini//snowCoverSWE_grassland_xxxx-xx-xx.map
snowFreeWaterIni = /projects/0/dfguu/users/inge/modflow_coupling_global_natural_Climate//tmp/ini//snowFreeWater_grassland_xxxx-xx-xx.map
topWaterLayerIni = /projects/0/dfguu/users/inge/modflow_coupling_global_natural_Climate//tmp/ini//topWaterLayer_grassland_xxxx-xx-xx.map
storUppIni       = /projects/0/dfguu/users/inge/modflow_coupling_global_natural_Climate//tmp/ini//storUpp_grassland_xxxx-xx-xx.map
storLowIni       = /projects/0/dfguu/users/inge/modflow_coupling_global_natural_Climate//tmp/ini//storLow_grassland_xxxx-xx-xx.map
interflowIni     = /projects/0/dfguu/users/inge/modflow_coupling_global_natural_Climate//tmp/ini//interflow_grassland_xxxx-xx-xx.map

[irrPaddyOptions]

name = irrPaddy
debugWaterBalance = True

# snow module properties
snowModuleType      =  Simple
freezingT           =  0.0
degreeDayFactor     =  0.0025
snowWaterHoldingCap =  0.1
refreezingCoeff     =  0.05
#
landCoverMapsNC  = None
# If NC file is not provided, we have to provide the following values:
fracVegCover     = PCRGLOBWB20/input5min/landCover/irrigation/fractionPaddy.map
minSoilDepthFrac = PCRGLOBWB20/input30min/landCover/irrPaddy/minf_paddy_permafrost.map
maxSoilDepthFrac = PCRGLOBWB20/input30min/landCover/irrPaddy/maxf_paddy.map
rootFraction1    = PCRGLOBWB20/input30min/landCover/irrPaddy/rfrac1_paddy.map
rootFraction2    = PCRGLOBWB20/input30min/landCover/irrPaddy/rfrac2_paddy.map
maxRootDepth     = 0.5
#
# Parameters for the Arno's scheme:
arnoBeta = None
# If arnoBeta is defined, the soil water capacity distribution is based on this.
# If arnoBeta is NOT defined, maxSoilDepthFrac must be defined such that arnoBeta will be calculated based on maxSoilDepthFrac and minSoilDepthFrac.
#
# other paramater values
minTopWaterLayer = 0.05
minCropKC        = 0.2
minInterceptCap  = 0.0002
cropDeplFactor   = 0.2

cropCoefficientNC = PCRGLOBWB20/input30min/landCover/irrPaddy/Global_CropCoefficientKc-IrrPaddy_30min.nc

# initial conditions:
interceptStorIni = /projects/0/dfguu/users/inge/modflow_coupling_global_natural_Climate//tmp/ini//interceptStor_irrPaddy_xxxx-xx-xx.map
snowCoverSWEIni  = /projects/0/dfguu/users/inge/modflow_coupling_global_natural_Climate//tmp/ini//snowCoverSWE_irrPaddy_xxxx-xx-xx.map
snowFreeWaterIni = /projects/0/dfguu/users/inge/modflow_coupling_global_natural_Climate//tmp/ini//snowFreeWater_irrPaddy_xxxx-xx-xx.map
topWaterLayerIni = /projects/0/dfguu/users/inge/modflow_coupling_global_natural_Climate//tmp/ini//topWaterLayer_irrPaddy_xxxx-xx-xx.map
storUppIni       = /projects/0/dfguu/users/inge/modflow_coupling_global_natural_Climate//tmp/ini//storUpp_irrPaddy_xxxx-xx-xx.map
storLowIni       = /projects/0/dfguu/users/inge/modflow_coupling_global_natural_Climate//tmp/ini//storLow_irrPaddy_xxxx-xx-xx.map
interflowIni     = /projects/0/dfguu/users/inge/modflow_coupling_global_natural_Climate//tmp/ini//interflow_irrPaddy_xxxx-xx-xx.map

[irrNonPaddyOptions]

name = irrNonPaddy
debugWaterBalance = True

# snow module properties
snowModuleType      =  Simple
freezingT           =  0.0
degreeDayFactor     =  0.0025
snowWaterHoldingCap =  0.1
refreezingCoeff     =  0.05
#
landCoverMapsNC  = None
# If NC file is not provided, we have to provide the following values:
fracVegCover     = PCRGLOBWB20/input5min/landCover/irrigation/fractionNonPaddy.map
minSoilDepthFrac = PCRGLOBWB20/input30min/landCover/irrNonPaddy/minf_nonpaddy_permafrost.map
maxSoilDepthFrac = PCRGLOBWB20/input30min/landCover/irrNonPaddy/maxf_nonpaddy.map
rootFraction1    = PCRGLOBWB20/input30min/landCover/irrNonPaddy/rfrac1_nonpaddy.map
rootFraction2    = PCRGLOBWB20/input30min/landCover/irrNonPaddy/rfrac2_nonpaddy.map
maxRootDepth     = 1.0
#
# Parameters for the Arno's scheme:
arnoBeta = None
# If arnoBeta is defined, the soil water capacity distribution is based on this.
# If arnoBeta is NOT defined, maxSoilDepthFrac must be defined such that arnoBeta will be calculated based on maxSoilDepthFrac and minSoilDepthFrac.
#
# other paramater values
minTopWaterLayer = 0.0
minCropKC        = 0.2
minInterceptCap  = 0.0002
cropDeplFactor   = 0.5

cropCoefficientNC = PCRGLOBWB20/input30min/landCover/irrNonPaddy/Global_CropCoefficientKc-IrrNonPaddy_30min.nc

# initial conditions:
interceptStorIni = /projects/0/dfguu/users/inge/modflow_coupling_global_natural_Climate//tmp/ini//interceptStor_irrNonPaddy_xxxx-xx-xx.map
snowCoverSWEIni  = /projects/0/dfguu/users/inge/modflow_coupling_global_natural_Climate//tmp/ini//snowCoverSWE_irrNonPaddy_xxxx-xx-xx.map
snowFreeWaterIni = /projects/0/dfguu/users/inge/modflow_coupling_global_natural_Climate//tmp/ini//snowFreeWater_irrNonPaddy_xxxx-xx-xx.map
topWaterLayerIni = /projects/0/dfguu/users/inge/modflow_coupling_global_natural_Climate//tmp/ini//topWaterLayer_irrNonPaddy_xxxx-xx-xx.map
storUppIni       = /projects/0/dfguu/users/inge/modflow_coupling_global_natural_Climate//tmp/ini//storUpp_irrNonPaddy_xxxx-xx-xx.map
storLowIni       = /projects/0/dfguu/users/inge/modflow_coupling_global_natural_Climate//tmp/ini//storLow_irrNonPaddy_xxxx-xx-xx.map
interflowIni     = /projects/0/dfguu/users/inge/modflow_coupling_global_natural_Climate//tmp/ini//interflow_irrNonPaddy_xxxx-xx-xx.map



[routingOptions]

debugWaterBalance = True

dynamicFloodPlain = False

lddMap      = PCRGLOBWB20/input5min/routing/lddsound_05min.map
cellAreaMap = PCRGLOBWB20/input5min/routing/cellsize05min.correct.map
gradient    = PCRGLOBWB20/input5min/routing/slope05min.map

# manning coefficient
manningsN   = 0.04

# routing method: (options are kinematicWave, simplifiedKinematicWave and accuTravelTime)
routingMethod = accuTravelTime

# lake and reservoir parameters
waterBodyInputNC = PCRGLOBWB20/input5min/routing/reservoirs/waterBodiesFinal_version15Sept2013/maps/waterBodies5ArcMin.nc
onlyNaturalWaterBodies = True
## False for human run 

# composite crop factors for WaterBodies: 
cropCoefficientWaterNC = PCRGLOBWB20/input30min/routing/cropCoefficientForOpenWater.nc
minCropWaterKC         = 0.20

# number of days (timesteps) that have been performed for spinning up initial conditions in the routing module (i.e. channelStorageIni, avgDischargeLongIni, avgDischargeShortIni, etc.)
timestepsToAvgDischargeIni     = /projects/0/dfguu/users/inge/modflow_coupling_global_natural_Climate//tmp/ini//timestepsToAvgDischarge_xxxx-xx-xx.map
# Note that: 
# - maximum number of days (timesteps) to calculate long term average flow values (default: 5 years = 5 * 365 days = 1825)
# - maximum number of days (timesteps) to calculate short term average values (default: 1 month = 1 * 30 days = 30)

# initial conditions:
waterBodyStorageIni            = /projects/0/dfguu/users/inge/modflow_coupling_global_natural_Climate//tmp/ini//waterBodyStorage_xxxx-xx-xx.map
channelStorageIni              = /projects/0/dfguu/users/inge/modflow_coupling_global_natural_Climate//tmp/ini//channelStorage_xxxx-xx-xx.map
readAvlChannelStorageIni       = /projects/0/dfguu/users/inge/modflow_coupling_global_natural_Climate//tmp/ini//readAvlChannelStorage_xxxx-xx-xx.map
avgDischargeLongIni            = /projects/0/dfguu/users/inge/modflow_coupling_global_natural_Climate//tmp/ini//avgDischargeLong_xxxx-xx-xx.map
avgDischargeShortIni           = /projects/0/dfguu/users/inge/modflow_coupling_global_natural_Climate//tmp/ini//avgDischargeShort_xxxx-xx-xx.map
m2tDischargeLongIni            = /projects/0/dfguu/users/inge/modflow_coupling_global_natural_Climate//tmp/ini//m2tDischargeLong_xxxx-xx-xx.map
avgBaseflowLongIni             = /projects/0/dfguu/users/inge/modflow_coupling_global_natural_Climate//tmp/ini//avgBaseflowLong_xxxx-xx-xx.map
riverbedExchangeIni            = /projects/0/dfguu/users/inge/modflow_coupling_global_natural_Climate//tmp/ini//riverbedExchange_xxxx-xx-xx.map
avgLakeReservoirInflowShortIni = /projects/0/dfguu/users/inge/modflow_coupling_global_natural_Climate//tmp/ini//avgLakeReservoirInflowShort_xxxx-xx-xx.map
avgLakeReservoirOutflowLongIni = /projects/0/dfguu/users/inge/modflow_coupling_global_natural_Climate//tmp/ini//avgLakeReservoirOutflowLong_xxxx-xx-xx.map
#
# initial condition of sub-time step discharge (needed for estimating number of time steps in kinematic wave methods)
#~ subDischargeIni                = None

[reportingOptions]
# output files that will be written in the disk in netcdf files:
outDailyTotNC = discharge
outMonthTotNC = gwRecharge,totalPotentialMaximumGrossDemand,unsatisfiedDemand,allocSurfaceWaterAbstract,allocNonFossilGroundwater,irrGrossDemand,surfaceWaterAbstraction,nonIrrGrossDemand
outMonthAvgNC = discharge,gwRecharge,totalGroundwaterAbstraction,fossilGroundwaterAbstraction,nonFossilGroundwaterAbstraction 
outMonthEndNC = None
outAnnuaTotNC = None
outAnnuaAvgNC = None
outAnnuaEndNC = None
