[globalOptions]

# Set the input directory map in an absolute path. 
# - The input forcing and parameter directories will be relative to this.
inputDir = /projects/0/dfguu/data/hydroworld/

# Map of clone (must be provided in PCRaster maps)
# - Spatial resolution and coverage are based on this map:
#~ cloneMap = others/Java/Java05min.clone.map
cloneMap = PCRGLOBWB20/input5min/routing/lddsound_05min.map
#~ cloneMap = /data/hydroworld/others/Mississippi/Mississippi05min.clone.map

# The area/landmask of interest:
landmask = None
#~ landmask = /data/hydroworld/others/Mississippi/Mississippi05min.landmask.map
# If None, area/landmask is limited for cells with ldd value. 

# Set the output directory in an absolute path.
outputDir = /projects/0/wtrcycle/users/edwin/5min_modflow_global_start_from_1995/

# starting time and end time
startTime = 1995-01-01
endTime   = 2010-12-31

# netcdf attributes for output files:
institution = Department of Physical Geography, Utrecht University
title       = PCR-GLOBWB-MODFLOW-OFFLINE output
description = test version (by Edwin H. Sutanudjaja) 

[modflowParameterOptions]

# a netcdf file contains the values of kSat, specificYield and recessionCoeff
groundwaterPropertiesNC = PCRGLOBWB20/input5min/groundwater/groundwaterProperties5ArcMin.nc
# minimum value for groundwater recession coefficient (day-1)
minRecessionCoeff = 1.0e-4

# estimate of the total groundwater thickness that is accessible  
estimateOfTotalGroundwaterThicknessNC = /projects/0/dfguu/users/edwin/data/aquifer_properties/groundwater_properties_05min.nc
minimumTotalGroundwaterThickness = 50.

# a netcdf file contains the information about elevations 
topographyNC = /projects/0/dfguu/users/edwin/data/floodplain_5arcmin_world_final/topography_parameters_05_arcmin.nc

# channel/routing  parameters
channelNC = /projects/0/dfguu/users/edwin/data/floodplain_5arcmin_world_final/channel_parameters_05_arcmin.nc
manningsN = 0.04

# lake and reservoir parameters
waterBodyInputNC = PCRGLOBWB20/input5min/routing/reservoirs/waterBodiesFinal_version15Sept2013/maps/waterBodies5ArcMin.nc
onlyNaturalWaterBodies = False

[modflowTransientInputOptions]

dischargeInputNC               = /projects/0/wtrcycle/users/edwinhs/05min_runs/05min_runs_27_april_2015/non_natural/global/netcdf/discharge_monthAvg_output.nc
groundwaterRechargeInputNC     = /projects/0/wtrcycle/users/edwinhs/05min_runs/05min_runs_27_april_2015/non_natural/global/netcdf/gwRecharge_monthAvg_output.nc
groundwaterAbstractionInputNC  = /projects/0/wtrcycle/users/edwinhs/05min_runs/05min_runs_27_april_2015/non_natural/global/netcdf/totalGroundwaterAbstraction_monthAvg_output.nc

# initial condition for groundwater head
groundwaterHeadIni = None
# - if None, the initial conditions will be based on the steady state simulation using the input defined in modflowSteadyStateInputOptions 

[modflowSteadyStateInputOptions]

# The following input maps used for the steady state run 
avgDischargeInputMap              = /projects/0/wtrcycle/users/edwinhs/05min_runs/05min_runs_27_april_2015/non_natural/global/analysis/avg_values/discharge_annuaAvg_output_1995.map
avgGroundwaterRechargeInputMap    = /projects/0/wtrcycle/users/edwinhs/05min_runs/05min_runs_27_april_2015/non_natural/global/analysis/avg_values/gwRecharge_annuaAvg_output_1995.map
#~ avgGroundwaterAbstractionInputMap = /projects/0/wtrcycle/users/edwinhs/05min_runs/05min_runs_27_april_2015/non_natural/global/analysis/avg_values/totalGroundwaterAbstraction_annuaAvg_output_1995.map
avgGroundwaterAbstractionInputMap = 0.0

[reportingOptions]
# output files that will be written in the disk in netcdf files:
outDailyTotNC = None
outMonthTotNC = None
outMonthAvgNC = None
outMonthEndNC = groundwaterHead,groundwaterDepth
outAnnuaTotNC = None
outAnnuaAvgNC = None
outAnnuaEndNC = groundwaterHead,groundwaterDepth
# netcdf format and zlib setup
formatNetCDF = NETCDF4
zlib = True
