[globalOptions]

# Set the pcrglobwb output directory in an absolute path.
#~ outputDir = /scratch/depfg/sutan101/test_uly_dummy/
outputDir    = MAIN_OUTPUT_DIR

# Set the input directory map in an absolute path. 
# - The input forcing and parameter directories and files will be relative to this.
inputDir    = /scratch/mo/nest/ulysses/data/edwin/pcrglobwb/pcrglobwb2_input/ 

# Map of clone (must be provided in PCRaster maps)
# - Spatial resolution and coverage are based on this map:
cloneMap    = /scratch/mo/nest/ulysses/data/edwin/clone_maps/version_2020-08-04/pcraster_maps/clonemap_mask_%s.map


# The area/landmask of interest:
#~ landmask = None
landmask    = /scratch/mo/nest/ulysses/data/edwin/clone_maps/version_2020-08-04/pcraster_maps//landmask_river_and_land_mask_%s.map

# netcdf attributes for output files:
institution = Department of Physical Geography, Utrecht University
title       = PCR-GLOBWB 2 output (not coupled to MODFLOW), development version for Ulysses
description = by Edwin H. Sutanudjaja (contact: e.h.sutanudjaja@uu.nl)


startTime = STARTING_DATE
endTime   = END_DATE
# Format: YYYY-MM-DD ; The model runs on daily time step.

#~ startTime = 1996-01-01
#~ endTime   = 2019-12-31


# spinning up options:
maxSpinUpsInYears = 0
minConvForSoilSto = 0.0
minConvForGwatSto = 0.0
minConvForChanSto = 0.0
minConvForTotlSto = 0.0


#~ [prefactorOptions]
#~ 
#~ linear_multiplier_for_refPotET         = 1.0
#~ linear_multiplier_for_degreeDayFactor  = 1.0
#~ linear_multiplier_for_minSoilDepthFrac = 1.0
#~ log_10_multiplier_for_kSat             = 0.0
#~ linear_multiplier_for_storCap          = 1.0
#~ log_10_multiplier_for_recessionCoeff   = 0.0
#~ multiplier_for_manningsN               = 1.0
#~ storGroundwaterIni_file                = Default


[meteoOptions]


# Method to calculate referencePotETP (reference potential evaporation+transpiration)
# options are "Hamon" and "Input" ; If "Input", the netcdf input file must be given:
referenceETPotMethod = Input

precipitationNC    = PRECIPITATION_FORCING_FILE
temperatureNC      = TEMPERATURE_FORCING_FILE
refETPotFileNC     = REF_POT_ET_FORCING_FILE

#~ precipitationNC    = /scratch/mo/nest/ulysses/data/meteo/era5land/1982/01/precipitation_daily_01_1981.nc
#~ temperatureNC      = /scratch/mo/nest/ulysses/data/meteo/era5land/1982/01/tavg_01_1981.nc
#~ refETPotFileNC     = /scratch/mo/nest/ulysses/data/meteo/era5land/1982/01/pet_01_1981.nc

#~ precipitationNC    = /scratch/mo/nest/ulysses/data/meteo/era5land/%04i/%02i/precipitation_daily_%02i_%04i.nc
#~ temperatureNC      = /scratch/mo/nest/ulysses/data/meteo/era5land/%04i/%02i/tavg_%02i_%04i.nc
#~ refETPotFileNC     = /scratch/mo/nest/ulysses/data/meteo/era5land/%04i/%02i/pet_%02i_%04i.nc
#~ precipitation_file_per_month  = True
#~ temperature_file_per_month    = True
#~ refETPotFileNC_file_per_month = True

# variable names in the forcing files (optional)
precipitationVariableName    = pre
temperatureVariableName      = tavg
referenceEPotVariableName    = pet

# conversion constants and factors to correct forcing values (optional) so that the units are in m.day-1 and degree Celcius                                                                                                           
precipitationConstant    = 0.0
precipitationFactor      = 0.001
temperatureConstant      = 0.0
temperatureFactor        = 1.0
referenceEPotConstant    = 0.0
referenceEPotFactor      = 0.001

# option to ignore small values of precipitation (default is False)
rounddownPrecipitation = False


[landSurfaceOptions]

debugWaterBalance = True

numberOfUpperSoilLayers = 2

# topography parameters
# - they are used for all land cover types, unless they are are defined in certain land cover type options 
#   (e.g. different/various soil types for agriculture areas)  
topographyNC        = /scratch/mo/nest/ulysses/data/edwin/floodplain_06min/global_ulysses_version_202007XX_not_corrected_to_water_bodies/pcrglobwb_topography_parameters_06min_july_2020.nc

# soil parameters
# - they are used for all land cover types, unless they are are defined in certain land cover type options 
#   (e.g. different/various soil types for agriculture areas)  
soilPropertiesNC    = /scratch/mo/nest/ulysses/data/edwin/soilgrids_from_rens_2020-06-23/output/soilgrids_properties_ulysses_6arcmin.nc4

#~ # option to skip extrapolation
#~ noParameterExtrapolation = True

# using a dummy land cover
landCoverTypes = forest,grassland,crop,urban
noLandCoverFractionCorrection = False



[forestOptions]
# we still have to spin up the model for initial conditions

name = forest
debugWaterBalance = True

# snow module properties
snowModuleType      =  Simple
freezingT           =  0.0
degreeDayFactor     =  0.0025
snowWaterHoldingCap =  0.1
refreezingCoeff     =  0.05

# other paramater values
minTopWaterLayer  = 0.0
minCropKC         = 0.2

cropCoefficientNC = /scratch/mo/nest/ulysses/data/edwin/landcover_ulysses_from_rens_2020-07-08/parameters_untar/tall_natural_06min/tall_natural_cropcoefficient_06min.nc
interceptCapNC    = /scratch/mo/nest/ulysses/data/edwin/landcover_ulysses_from_rens_2020-07-08/parameters_untar/tall_natural_06min/tall_natural_interceptioncapacity_06min.nc
coverFractionNC   = /scratch/mo/nest/ulysses/data/edwin/landcover_ulysses_from_rens_2020-07-08/parameters_untar/tall_natural_06min/tall_natural_groundcover_06min.nc

landCoverMapsNC   = None
# If NC file is not provided, we have to provide the following pcraster maps:
fracVegCover      = /scratch/mo/nest/ulysses/data/edwin/landcover_ulysses_from_rens_2020-07-08/fractions/fraction_tall_natural_06arcmin.map
minSoilDepthFrac  = /scratch/mo/nest/ulysses/data/edwin/landcover_ulysses_from_rens_2020-07-08/parameters_untar/tall_natural_06min/tall_natural_min_rootdepth_fraction_06min.map
maxSoilDepthFrac  = /scratch/mo/nest/ulysses/data/edwin/landcover_ulysses_from_rens_2020-07-08/parameters_untar/tall_natural_06min/tall_natural_max_rootdepth_fraction_06min.map
rootFraction1     = /scratch/mo/nest/ulysses/data/edwin/landcover_ulysses_from_rens_2020-07-08/parameters_untar/tall_natural_06min/tall_natural_rootfraction_z1_06min.map
rootFraction2     = /scratch/mo/nest/ulysses/data/edwin/landcover_ulysses_from_rens_2020-07-08/parameters_untar/tall_natural_06min/tall_natural_rootfraction_z2_06min.map
maxRootDepth      = /scratch/mo/nest/ulysses/data/edwin/landcover_ulysses_from_rens_2020-07-08/parameters_untar/tall_natural_06min/tall_natural_max_rootdepth_06min.map
# Note: The maxRootDepth is not used for non irrigated land cover type. 	
#
# Parameters for the Arno's scheme:
arnoBeta = None
# If arnoBeta is defined, the soil water capacity distribution is based on this.
# If arnoBeta is NOT defined, maxSoilDepthFrac must be defined such that arnoBeta will be calculated based on maxSoilDepthFrac and minSoilDepthFrac.

# initial conditions:
interceptStorIni = MAIN_INITIAL_STATE_FOLDER/interceptStor_forest_DATE_FOR_INITIAL_STATES.map
snowCoverSWEIni  = MAIN_INITIAL_STATE_FOLDER/snowCoverSWE_forest_DATE_FOR_INITIAL_STATES.map
snowFreeWaterIni = MAIN_INITIAL_STATE_FOLDER/snowFreeWater_forest_DATE_FOR_INITIAL_STATES.map
topWaterLayerIni = MAIN_INITIAL_STATE_FOLDER/topWaterLayer_forest_DATE_FOR_INITIAL_STATES.map
storUppIni       = MAIN_INITIAL_STATE_FOLDER/storUpp_forest_DATE_FOR_INITIAL_STATES.map
storLowIni       = MAIN_INITIAL_STATE_FOLDER/storLow_forest_DATE_FOR_INITIAL_STATES.map
interflowIni     = MAIN_INITIAL_STATE_FOLDER/interflow_forest_DATE_FOR_INITIAL_STATES.map


# option to skip extrapolation
noParameterExtrapolation = True


[grasslandOptions]
# we still have to spin up the model for initial conditions

name = grassland
debugWaterBalance = True

# snow module properties
snowModuleType      =  Simple
freezingT           =  0.0
degreeDayFactor     =  0.0025
snowWaterHoldingCap =  0.1
refreezingCoeff     =  0.05

# other paramater values
minTopWaterLayer  = 0.0
minCropKC         = 0.2

cropCoefficientNC = /scratch/mo/nest/ulysses/data/edwin/landcover_ulysses_from_rens_2020-07-08/parameters_untar/short_06min/short_cropcoefficient_06min.nc
interceptCapNC    = /scratch/mo/nest/ulysses/data/edwin/landcover_ulysses_from_rens_2020-07-08/parameters_untar/short_06min/short_interceptioncapacity_06min.nc
coverFractionNC   = /scratch/mo/nest/ulysses/data/edwin/landcover_ulysses_from_rens_2020-07-08/parameters_untar/short_06min/short_groundcover_06min.nc

landCoverMapsNC   = None
# If NC file is not provided, we have to provide the following pcraster maps:
fracVegCover      = /scratch/mo/nest/ulysses/data/edwin/landcover_ulysses_from_rens_2020-07-08/fractions/fraction_short_natural_06arcmin.map
minSoilDepthFrac  = /scratch/mo/nest/ulysses/data/edwin/landcover_ulysses_from_rens_2020-07-08/parameters_untar/short_06min/short_min_rootdepth_fraction_06min.map
maxSoilDepthFrac  = /scratch/mo/nest/ulysses/data/edwin/landcover_ulysses_from_rens_2020-07-08/parameters_untar/short_06min/short_max_rootdepth_fraction_06min.map
rootFraction1     = /scratch/mo/nest/ulysses/data/edwin/landcover_ulysses_from_rens_2020-07-08/parameters_untar/short_06min/short_rootfraction_z1_06min.map
rootFraction2     = /scratch/mo/nest/ulysses/data/edwin/landcover_ulysses_from_rens_2020-07-08/parameters_untar/short_06min/short_rootfraction_z2_06min.map
maxRootDepth      = /scratch/mo/nest/ulysses/data/edwin/landcover_ulysses_from_rens_2020-07-08/parameters_untar/short_06min/short_max_rootdepth_06min.map
# Note: The maxRootDepth is not used for non irrigated land cover type. 	
#
# Parameters for the Arno's scheme:
arnoBeta = None
# If arnoBeta is defined, the soil water capacity distribution is based on this.
# If arnoBeta is NOT defined, maxSoilDepthFrac must be defined such that arnoBeta will be calculated based on maxSoilDepthFrac and minSoilDepthFrac.

# initial conditions:
interceptStorIni = MAIN_INITIAL_STATE_FOLDER/interceptStor_grassland_DATE_FOR_INITIAL_STATES.map
snowCoverSWEIni  = MAIN_INITIAL_STATE_FOLDER/snowCoverSWE_grassland_DATE_FOR_INITIAL_STATES.map
snowFreeWaterIni = MAIN_INITIAL_STATE_FOLDER/snowFreeWater_grassland_DATE_FOR_INITIAL_STATES.map
topWaterLayerIni = MAIN_INITIAL_STATE_FOLDER/topWaterLayer_grassland_DATE_FOR_INITIAL_STATES.map
storUppIni       = MAIN_INITIAL_STATE_FOLDER/storUpp_grassland_DATE_FOR_INITIAL_STATES.map
storLowIni       = MAIN_INITIAL_STATE_FOLDER/storLow_grassland_DATE_FOR_INITIAL_STATES.map
interflowIni     = MAIN_INITIAL_STATE_FOLDER/interflow_grassland_DATE_FOR_INITIAL_STATES.map

# option to skip extrapolation
noParameterExtrapolation = True


[urbanOptions]
# we still have to spin up the model for initial conditions

name = urban
debugWaterBalance = True

# snow module properties
snowModuleType      =  Simple
freezingT           =  0.0
degreeDayFactor     =  0.0025
snowWaterHoldingCap =  0.1
refreezingCoeff     =  0.05

# other paramater values
minTopWaterLayer  = 0.0
minCropKC         = 0.2

cropCoefficientNC = /scratch/mo/nest/ulysses/data/edwin/landcover_ulysses_from_rens_2020-07-08/parameters_untar/urban_06min/urban_cropcoefficient_06min.nc
interceptCapNC    = /scratch/mo/nest/ulysses/data/edwin/landcover_ulysses_from_rens_2020-07-08/parameters_untar/urban_06min/urban_interceptioncapacity_06min.nc
coverFractionNC   = /scratch/mo/nest/ulysses/data/edwin/landcover_ulysses_from_rens_2020-07-08/parameters_untar/urban_06min/urban_groundcover_06min.nc

landCoverMapsNC   = None
# If NC file is not provided, we have to provide the following pcraster maps:
fracVegCover      = /scratch/mo/nest/ulysses/data/edwin/landcover_ulysses_from_rens_2020-07-08/fractions/fraction_urban_06arcmin.map
minSoilDepthFrac  = /scratch/mo/nest/ulysses/data/edwin/landcover_ulysses_from_rens_2020-07-08/parameters_untar/urban_06min/urban_min_rootdepth_fraction_06min.map
maxSoilDepthFrac  = /scratch/mo/nest/ulysses/data/edwin/landcover_ulysses_from_rens_2020-07-08/parameters_untar/urban_06min/urban_max_rootdepth_fraction_06min.map
rootFraction1     = /scratch/mo/nest/ulysses/data/edwin/landcover_ulysses_from_rens_2020-07-08/parameters_untar/urban_06min/urban_rootfraction_z1_06min.map
rootFraction2     = /scratch/mo/nest/ulysses/data/edwin/landcover_ulysses_from_rens_2020-07-08/parameters_untar/urban_06min/urban_rootfraction_z2_06min.map
maxRootDepth      = /scratch/mo/nest/ulysses/data/edwin/landcover_ulysses_from_rens_2020-07-08/parameters_untar/urban_06min/urban_max_rootdepth_06min.map
# Note: The maxRootDepth is not used for non irrigated land cover type. 	
#
# Parameters for the Arno's scheme:
arnoBeta = None
# If arnoBeta is defined, the soil water capacity distribution is based on this.
# If arnoBeta is NOT defined, maxSoilDepthFrac must be defined such that arnoBeta will be calculated based on maxSoilDepthFrac and minSoilDepthFrac.

# initial conditions:
interceptStorIni = MAIN_INITIAL_STATE_FOLDER/interceptStor_urban_DATE_FOR_INITIAL_STATES.map
snowCoverSWEIni  = MAIN_INITIAL_STATE_FOLDER/snowCoverSWE_urban_DATE_FOR_INITIAL_STATES.map
snowFreeWaterIni = MAIN_INITIAL_STATE_FOLDER/snowFreeWater_urban_DATE_FOR_INITIAL_STATES.map
topWaterLayerIni = MAIN_INITIAL_STATE_FOLDER/topWaterLayer_urban_DATE_FOR_INITIAL_STATES.map
storUppIni       = MAIN_INITIAL_STATE_FOLDER/storUpp_urban_DATE_FOR_INITIAL_STATES.map
storLowIni       = MAIN_INITIAL_STATE_FOLDER/storLow_urban_DATE_FOR_INITIAL_STATES.map
interflowIni     = MAIN_INITIAL_STATE_FOLDER/interflow_urban_DATE_FOR_INITIAL_STATES.map

# option to skip extrapolation
noParameterExtrapolation = True


[cropOptions]
# we still have to spin up the model for initial conditions

name = crop
debugWaterBalance = True

# snow module properties
snowModuleType      =  Simple
freezingT           =  0.0
degreeDayFactor     =  0.0025
snowWaterHoldingCap =  0.1
refreezingCoeff     =  0.05

# other paramater values
minTopWaterLayer  = 0.0
minCropKC         = 0.2

cropCoefficientNC = /scratch/mo/nest/ulysses/data/edwin/landcover_ulysses_from_rens_2020-07-08/parameters_untar/crops_06min/crops_cropcoefficient_06min.nc
interceptCapNC    = /scratch/mo/nest/ulysses/data/edwin/landcover_ulysses_from_rens_2020-07-08/parameters_untar/crops_06min/crops_interceptioncapacity_06min.nc
coverFractionNC   = /scratch/mo/nest/ulysses/data/edwin/landcover_ulysses_from_rens_2020-07-08/parameters_untar/crops_06min/crops_groundcover_06min.nc

landCoverMapsNC   = None
# If NC file is not provided, we have to provide the following pcraster maps:
fracVegCover      = /scratch/mo/nest/ulysses/data/edwin/landcover_ulysses_from_rens_2020-07-08/fractions/fraction_cropland_06arcmin.map
minSoilDepthFrac  = /scratch/mo/nest/ulysses/data/edwin/landcover_ulysses_from_rens_2020-07-08/parameters_untar/crops_06min/crops_min_rootdepth_fraction_06min.map
maxSoilDepthFrac  = /scratch/mo/nest/ulysses/data/edwin/landcover_ulysses_from_rens_2020-07-08/parameters_untar/crops_06min/crops_max_rootdepth_fraction_06min.map
rootFraction1     = /scratch/mo/nest/ulysses/data/edwin/landcover_ulysses_from_rens_2020-07-08/parameters_untar/crops_06min/crops_rootfraction_z1_06min.map
rootFraction2     = /scratch/mo/nest/ulysses/data/edwin/landcover_ulysses_from_rens_2020-07-08/parameters_untar/crops_06min/crops_rootfraction_z2_06min.map
maxRootDepth      = /scratch/mo/nest/ulysses/data/edwin/landcover_ulysses_from_rens_2020-07-08/parameters_untar/crops_06min/crops_max_rootdepth_06min.map
# Note: The maxRootDepth is not used for non irrigated land cover type. 	
#
# Parameters for the Arno's scheme:
arnoBeta = None
# If arnoBeta is defined, the soil water capacity distribution is based on this.
# If arnoBeta is NOT defined, maxSoilDepthFrac must be defined such that arnoBeta will be calculated based on maxSoilDepthFrac and minSoilDepthFrac.

# initial conditions:
interceptStorIni = MAIN_INITIAL_STATE_FOLDER/interceptStor_crop_DATE_FOR_INITIAL_STATES.map
snowCoverSWEIni  = MAIN_INITIAL_STATE_FOLDER/snowCoverSWE_crop_DATE_FOR_INITIAL_STATES.map
snowFreeWaterIni = MAIN_INITIAL_STATE_FOLDER/snowFreeWater_crop_DATE_FOR_INITIAL_STATES.map
topWaterLayerIni = MAIN_INITIAL_STATE_FOLDER/topWaterLayer_crop_DATE_FOR_INITIAL_STATES.map
storUppIni       = MAIN_INITIAL_STATE_FOLDER/storUpp_crop_DATE_FOR_INITIAL_STATES.map
storLowIni       = MAIN_INITIAL_STATE_FOLDER/storLow_crop_DATE_FOR_INITIAL_STATES.map
interflowIni     = MAIN_INITIAL_STATE_FOLDER/interflow_crop_DATE_FOR_INITIAL_STATES.map

# option to skip extrapolation
noParameterExtrapolation = True


[groundwaterOptions]
# we still have to spin up the model for initial conditions

debugWaterBalance = True

# the nc file should be just dummy - TODO: FIX/REMOVE groundwaterPropertiesNC
groundwaterPropertiesNC = /scratch/mo/nest/ulysses/data/edwin/pcrglobwb/pcrglobwb2_input/global_06min_resampled_from_global_05min/groundwater/properties/groundwaterProperties5ArcMin.nc
#
specificYield  = /home/ms/copext/cyes/links/scratch_ulysses/data/edwin/recession_coefficient_version_20200708_USE-THIS/06min/specific_yield_aquifer_06min.map
recessionCoeff = /home/ms/copext/cyes/links/scratch_ulysses/data/edwin/recession_coefficient_version_20200708_USE-THIS/06min/recession_coefficient_06min.map
kSatAquifer    = /home/ms/copext/cyes/links/scratch_ulysses/data/edwin/recession_coefficient_version_20200708_USE-THIS/06min/k_conductivity_aquifer_06min.map
#
# - minimum value for groundwater recession coefficient (day-1) 
minRecessionCoeff = 1.0e-4


doNotExtrapolateThickness = True
noParameterExtrapolation  = True

# initial conditions:
storGroundwaterIni                        = MAIN_INITIAL_STATE_FOLDER/storGroundwater_DATE_FOR_INITIAL_STATES.map
storGroundwaterFossilIni                  = MAIN_INITIAL_STATE_FOLDER/storGroundwaterFossil_DATE_FOR_INITIAL_STATES.map
#
# additional initial conditions for pumping behaviors
avgNonFossilGroundwaterAllocationLongIni  = MAIN_INITIAL_STATE_FOLDER/avgNonFossilGroundwaterAllocationLong_DATE_FOR_INITIAL_STATES.map
avgNonFossilGroundwaterAllocationShortIni = MAIN_INITIAL_STATE_FOLDER/avgNonFossilGroundwaterAllocationShort_DATE_FOR_INITIAL_STATES.map
avgTotalGroundwaterAbstractionIni         = MAIN_INITIAL_STATE_FOLDER/avgTotalGroundwaterAbstraction_DATE_FOR_INITIAL_STATES.map
avgTotalGroundwaterAllocationLongIni      = MAIN_INITIAL_STATE_FOLDER/avgTotalGroundwaterAllocationLong_DATE_FOR_INITIAL_STATES.map
avgTotalGroundwaterAllocationShortIni     = MAIN_INITIAL_STATE_FOLDER/avgTotalGroundwaterAllocationShort_DATE_FOR_INITIAL_STATES.map
#
# additional initial conditions (needed only for MODFLOW run) 
relativeGroundwaterHeadIni                = MAIN_INITIAL_STATE_FOLDER/relativeGroundwaterHead_DATE_FOR_INITIAL_STATES.map
baseflowIni                               = MAIN_INITIAL_STATE_FOLDER/baseflow_DATE_FOR_INITIAL_STATES.map


[routingOptions]
# we still have to spin up the model for initial conditions

debugWaterBalance = True

# drainage direction map
#~ lddMap   = 5.0
lddMap      = /home/ms/copext/cyes/links/scratch_ulysses/data/edwin/lakes_and_reservoirs/version_202007XX/netcdf_and_ldd/lddsound_06min_version_202007XX_for_ulysses.map

# cell area (unit: m2)
cellAreaMap = /scratch/mo/nest/ulysses/data/edwin/ulysses_river_network_adjusted_for_pcrglobwb/version_2020-07-21/final/cdo_griddarea.map

# routing method:
routingMethod = accuTravelTime

# manning coefficient
manningsN   = 0.04

# Option for flood plain simulation
dynamicFloodPlain = False


# channel gradient
gradient             = /scratch/mo/nest/ulysses/data/edwin/floodplain_06min/global_ulysses_version_202007XX_not_corrected_to_water_bodies/map/channel_gradient.map

# constant channel depth 
constantChannelDepth = /scratch/mo/nest/ulysses/data/edwin/floodplain_06min/global_ulysses_version_202007XX_not_corrected_to_water_bodies/map/bankfull_depth.map

# constant channel width (optional)
constantChannelWidth = /scratch/mo/nest/ulysses/data/edwin/floodplain_06min/global_ulysses_version_202007XX_not_corrected_to_water_bodies/map/bankfull_width.map

# minimum channel width (optional)
minimumChannelWidth  = /scratch/mo/nest/ulysses/data/edwin/floodplain_06min/global_ulysses_version_202007XX_not_corrected_to_water_bodies/map/bankfull_width.map

# channel properties for flooding
bankfullCapacity     = None
# - If None, it will be estimated from (bankfull) channel depth (m) and width (m) 


# composite crop factors for WaterBodies: 
cropCoefficientWaterNC = /scratch/mo/nest/ulysses/data/edwin/pcrglobwb/pcrglobwb2_input/global_30min/routing/kc_surface_water/cropCoefficientForOpenWater.nc
minCropWaterKC         = 1.00


# lake and reservoir parameters
includeWaterBodies     = True
waterBodyInputNC       = /home/ms/copext/cyes/links/scratch_ulysses/data/edwin/lakes_and_reservoirs/version_202007XX/netcdf_and_ldd/lakes_and_reservoirs_06min_global_version_july_2020_for_ulysses.nc
#~ fracWaterInp        = None
#~ waterBodyIds        = None
#~ waterBodyTyp        = None
#~ resMaxCapInp        = None
#~ resSfAreaInp        = None
onlyNaturalWaterBodies = False


# initial conditions:
waterBodyStorageIni            = MAIN_INITIAL_STATE_FOLDER/waterBodyStorage_DATE_FOR_INITIAL_STATES.map
channelStorageIni              = MAIN_INITIAL_STATE_FOLDER/channelStorage_DATE_FOR_INITIAL_STATES.map
readAvlChannelStorageIni       = MAIN_INITIAL_STATE_FOLDER/readAvlChannelStorage_DATE_FOR_INITIAL_STATES.map
avgDischargeLongIni            = MAIN_INITIAL_STATE_FOLDER/avgDischargeLong_DATE_FOR_INITIAL_STATES.map
avgDischargeShortIni           = MAIN_INITIAL_STATE_FOLDER/avgDischargeShort_DATE_FOR_INITIAL_STATES.map
m2tDischargeLongIni            = MAIN_INITIAL_STATE_FOLDER/m2tDischargeLong_DATE_FOR_INITIAL_STATES.map
avgBaseflowLongIni             = MAIN_INITIAL_STATE_FOLDER/avgBaseflowLong_DATE_FOR_INITIAL_STATES.map
riverbedExchangeIni            = MAIN_INITIAL_STATE_FOLDER/riverbedExchange_DATE_FOR_INITIAL_STATES.map
#
# initial condition of sub-time step discharge (needed for estimating number of time steps in kinematic wave methods)
subDischargeIni                = MAIN_INITIAL_STATE_FOLDER/subDischarge_DATE_FOR_INITIAL_STATES.map
#
avgLakeReservoirInflowShortIni = MAIN_INITIAL_STATE_FOLDER/avgLakeReservoirInflowShort_DATE_FOR_INITIAL_STATES.map
avgLakeReservoirOutflowLongIni = MAIN_INITIAL_STATE_FOLDER/avgLakeReservoirOutflowLong_DATE_FOR_INITIAL_STATES.map
#
# number of days (timesteps) that have been performed for spinning up initial conditions in the routing module (i.e. channelStorageIni, avgDischargeLongIni, avgDischargeShortIni, etc.)
timestepsToAvgDischargeIni     = MAIN_INITIAL_STATE_FOLDER/timestepsToAvgDischarge_DATE_FOR_INITIAL_STATES.map
# Note that: 
# - maximum number of days (timesteps) to calculate long term average flow values (default: 5 years = 5 * 365 days = 1825)
# - maximum number of days (timesteps) to calculate short term average values (default: 1 month = 1 * 30 days = 30)


[reportingOptions]

# landmask for reporting
landmask_for_reporting    = /scratch/mo/nest/ulysses/data/edwin/clone_maps/version_2020-08-04/pcraster_maps/landmask_land_mask_%s.map

# output files that will be written in the disk in netcdf files:
# - daily resolution
outDailyTotNC = ulyssesP,ulyssesET,ulyssesSWE,ulyssesQsm,ulyssesSM,ulyssesQrRunoff,ulyssesDischarge
# - monthly resolution
outMonthTotNC = precipitation,referencePotET,totalEvaporation,totalRunoff,gwRecharge
outMonthAvgNC = temperature,gwRecharge,discharge,ulyssesP,ulyssesET,ulyssesSWE,ulyssesQsm,ulyssesSM,ulyssesQrRunoff,ulyssesDischarge,totalWaterStorageThickness
outMonthEndNC = ulyssesSWE,ulyssesSM,totalWaterStorageThickness
# - annual resolution
outAnnuaTotNC = None
outAnnuaAvgNC = None
outAnnuaEndNC = None
#~ outAnnuaTotNC = precipitation,totalEvaporation,totalRunoff,gwRecharge
#~ outAnnuaAvgNC = gwRecharge,totalWaterStorageThickness,discharge
#~ outAnnuaEndNC = totalWaterStorageThickness
# - monthly and annual maxima
outMonthMaxNC = None
outAnnuaMaxNC = None

#~ # netcdf format and zlib setup
#~ formatNetCDF = NETCDF4
#~ zlib = True

#~ # option to save states at the end of every month
#~ save_monthly_end_states = True
