[globalOptions]

# Set the input directory map in an absolute path. 
# - The input forcing and parameter directories will be relative to this.
inputDir  = /projects/0/dfguu/data/hydroworld/

# set the pcrglobwb output directory in an absolute path
outputDir = /scratch-shared/edwinhs/05min_runs_february_2016_continue/pcrglobwb_only_from_1901_6LCs_original_parameter_set_natural/no_correction/continue_from_1929/

# the following is needed for a parallel run
cloneAreas = Global
#~ cloneAreas = M47,M48,M49
#~ cloneAreas = M47,M48,M49,M29
#~ cloneAreas = M17,M26,M44,M29,M52,M02

# Map of clone (must be provided in PCRaster maps)
# - Spatial resolution and coverage are based on this map:
#~ cloneMap = others/RhineMeuse/RhineMeuse05min.clone.map
#~ cloneMap = others/Mississippi/Mississippi05min.clone.map
#~ cloneMap = others/Indus/Indus05min.clone.map
#~ cloneMap = others/Nile/Nile05min.clone.map
cloneMap = others/05ArcMinCloneMaps/new_masks_from_top/clone_%3s.map

# The area/landmask of interest:
# If None, area/landmask is limited for cells with ldd value. 
landmask = others/05ArcMinCloneMaps/new_masks_from_top/mask_%3s.map

# netcdf attributes for output files:
institution = Department of Physical Geography, Utrecht University
title       = PCR-GLOBWB 2 output (not coupled to MODFLOW)
description = test version (by Edwin H. Sutanudjaja) 

startTime = 1929-01-01
endTime   = 2010-12-31
# Format: YYYY-MM-DD ; The current model runs on the daily time step.

# spinning up options:
maxSpinUpsInYears = 0
minConvForSoilSto = 0.0
minConvForGwatSto = 0.0
minConvForChanSto = 0.0
minConvForTotlSto = 0.0

# option/directory for saving the spin-up directory 
spinUpOutputDir = True

[prefactorOptions]

linear_multiplier_for_refPotET         = 1.0
linear_multiplier_for_degreeDayFactor  = 1.0
linear_multiplier_for_minSoilDepthFrac = 1.0
log_10_multiplier_for_kSat             = 0.0
linear_multiplier_for_storCap          = 1.0
log_10_multiplier_for_recessionCoeff   = 0.0

[meteoOptions]

# Set the forcing temperature and precipitation files (relative to inputDir)
precipitationNC = forcing/ERA20C/CRU-TS3.23_ERA20C_daily_precipitation_1901_to_2010.nc
temperatureNC   = forcing/ERA20C/CRU-TS3.23_ERA20C_daily_temperature_1901_to_2010.nc

# Method to calculate referencePotETP (reference potential evaporation+transpiration)
# options are "Hamon" and "Input" ; If "Input", the netcdf input file must be given:
referenceETPotMethod = Input
refETPotFileNC  = forcing/ERA20C/CRU-TS3.23_ERA20C_daily_referencePotET_1901_to_2010.nc

[meteoDownscalingOptions]                                                                                                                                        
                                                                                                                                                                 
downscalePrecipitation  = False                                                                                                                                   
downscaleTemperature    = True                                                                                                                                   
downscaleReferenceETPot = False                                                                                                                                   
                                                                                                                                                                 
# downscaling (based on the digital elevation model):                                                                                                            
# The downscaling will be performed by providing the "cellIds" (meteoDownscaleIds) of lower resolution cells.                                                    
meteoDownscaleIds = PCRGLOBWB20/input5min/meteo/downscalingFrom30ArcMin/uniqueIds_30min.map                                                                      
highResolutionDEM = PCRGLOBWB20/input5min/meteo/downscalingFrom30ArcMin/gtopo05min.map                                                                           
                                                                                                                                                                 
# lapse rates:                                                                                                                                                   
temperLapseRateNC = PCRGLOBWB20/input5min/meteo/downscalingFrom30ArcMin/temperature_slope.nc                                                                     
precipLapseRateNC = PCRGLOBWB20/input5min/meteo/downscalingFrom30ArcMin/precipitation_slope.nc                                                                   
                                                                                                                                                                 
# downscaling criteria (TODO: remove these):                                                                                                                     
temperatCorrelNC = PCRGLOBWB20/input5min/meteo/downscalingFrom30ArcMin/temperature_correl.nc                                                                     
precipitCorrelNC = PCRGLOBWB20/input5min/meteo/downscalingFrom30ArcMin/precipitation_correl.nc                                                                   
                                                                                                                                                                 
# windows length (unit: arc-degree) for smoothing/averaging forcing data (not recommended):                                                                      
smoothingWindowsLength = 0                                                                                                                                       

[landSurfaceOptions]
debugWaterBalance = True

numberOfUpperSoilLayers = 2

# soil and parameters
# - they are used for all land cover types, unless they are are defined in certain land cover type options 
#   (e.g. different/various soil types for agriculture areas)  
topographyNC     = /projects/0/dfguu/users/edwin/data/floodplain_05arcmin_world_final/based_on_daily_runoff/topography_parameters_5_arcmin_october_2015.nc
soilPropertiesNC = PCRGLOBWB20/input5min/landSurface/soil/v03Jul2013/soilProperties5ArcMin.nc

# if the following is True, there will be annual changes in the land cover parameters 
# (i.e. fracVegCover, rootFraction1, rootFraction2 and maxRootDepth, as well as arnoBeta, minSoilDepthFrac and maxSoilDepthFrac) 
# that have to defined in the options of each land cover in netcdf files
annualChangesInLandCoverParameters = True

includeIrrigation = False

landCoverTypes = forest,grassland,pasture,rainfedCrops,irrPaddy,irrNonPaddy

noLandCoverFractionCorrection = True

# a pcraster map/value defining irrigation efficiency (dimensionless) - optional
irrigationEfficiency = PCRGLOBWB20/input30min/landSurface/waterDemand/efficiency/efficiency.map

# netcdf time series for historical expansion of irrigation areas (unit: hectares). 
# Note: The resolution of this map must be consisten with the resolution of cellArea. 
historicalIrrigationArea = None

[forestOptions]

name = forest
debugWaterBalance = True

# snow module properties
snowModuleType      =  Simple
freezingT           =  0.0
degreeDayFactor     =  0.0025
snowWaterHoldingCap =  0.1
refreezingCoeff     =  0.05

# other paramater values
minTopWaterLayer = 0.0
minCropKC        = 0.2

# Parameters for the Arno's scheme:
arnoBeta = None
# If arnoBeta is defined, the soil water capacity distribution is based on this.
# If arnoBeta is NOT defined, maxSoilDepthFrac must be defined such that arnoBeta will be calculated based on maxSoilDepthFrac and minSoilDepthFrac.

fracVegCoverNC     = /projects/0/dfguu/users/edwin/data/joyce_land_cover_parameters/05min/landcover_fractions/vegetation_fraction_tall_natural_grid_corrected.nc4
minSoilDepthFracNC = /projects/0/dfguu/users/edwin/data/joyce_land_cover_parameters/05min/hyde_5min_1900/minRootDepthFraction_tall_natural_05min.map
maxSoilDepthFracNC = /projects/0/dfguu/users/edwin/data/joyce_land_cover_parameters/05min/hyde_5min_1900/maxRootDepthFraction_tall_natural_05min.map
rootFraction1NC    = /projects/0/dfguu/users/edwin/data/joyce_land_cover_parameters/05min/hyde_5min_1900/rootFraction1_tall_natural_05min.map
rootFraction2NC    = /projects/0/dfguu/users/edwin/data/joyce_land_cover_parameters/05min/hyde_5min_1900/rootFraction2_tall_natural_05min.map
maxRootDepthNC     = 1.0
arnoBetaNC         = None

cropCoefficientNC = /projects/0/dfguu/users/edwin/data/joyce_land_cover_parameters/05min/hyde_5min_1900/cropCoefficient_tall_natural.nc
interceptCapNC    = /projects/0/dfguu/users/edwin/data/joyce_land_cover_parameters/05min/hyde_5min_1900/interceptionCapacity_tall_natural.nc
coverFractionNC   = /projects/0/dfguu/users/edwin/data/joyce_land_cover_parameters/05min/hyde_5min_1900/coverFraction_tall_natural.nc

# initial conditions:
interceptStorIni = /scratch-shared/edwinhs/05min_runs_february_2016_begin/pcrglobwb_only_from_1901_6LCs_original_parameter_set_natural/no_correction/global/states/interceptStor_forest_1928-12-31.map
snowCoverSWEIni  = /scratch-shared/edwinhs/05min_runs_february_2016_begin/pcrglobwb_only_from_1901_6LCs_original_parameter_set_natural/no_correction/global/states/snowCoverSWE_forest_1928-12-31.map
snowFreeWaterIni = /scratch-shared/edwinhs/05min_runs_february_2016_begin/pcrglobwb_only_from_1901_6LCs_original_parameter_set_natural/no_correction/global/states/snowFreeWater_forest_1928-12-31.map
topWaterLayerIni = /scratch-shared/edwinhs/05min_runs_february_2016_begin/pcrglobwb_only_from_1901_6LCs_original_parameter_set_natural/no_correction/global/states/topWaterLayer_forest_1928-12-31.map
storUppIni       = /scratch-shared/edwinhs/05min_runs_february_2016_begin/pcrglobwb_only_from_1901_6LCs_original_parameter_set_natural/no_correction/global/states/storUpp_forest_1928-12-31.map
storLowIni       = /scratch-shared/edwinhs/05min_runs_february_2016_begin/pcrglobwb_only_from_1901_6LCs_original_parameter_set_natural/no_correction/global/states/storLow_forest_1928-12-31.map
interflowIni     = /scratch-shared/edwinhs/05min_runs_february_2016_begin/pcrglobwb_only_from_1901_6LCs_original_parameter_set_natural/no_correction/global/states/interflow_forest_1928-12-31.map

[grasslandOptions]

name = grassland
debugWaterBalance = True

# snow module properties
snowModuleType      =  Simple
freezingT           =  0.0
degreeDayFactor     =  0.0025
snowWaterHoldingCap =  0.1
refreezingCoeff     =  0.05

# other paramater values
minTopWaterLayer = 0.0
minCropKC        = 0.2

# Parameters for the Arno's scheme:
arnoBeta = None
# If arnoBeta is defined, the soil water capacity distribution is based on this.
# If arnoBeta is NOT defined, maxSoilDepthFrac must be defined such that arnoBeta will be calculated based on maxSoilDepthFrac and minSoilDepthFrac.

fracVegCoverNC     = /projects/0/dfguu/users/edwin/data/joyce_land_cover_parameters/05min/landcover_fractions/vegetation_fraction_short_natural_grid_corrected.nc4
minSoilDepthFracNC = /projects/0/dfguu/users/edwin/data/joyce_land_cover_parameters/05min/hyde_5min_1900/minRootDepthFraction_short_natural_05min.map
maxSoilDepthFracNC = /projects/0/dfguu/users/edwin/data/joyce_land_cover_parameters/05min/hyde_5min_1900/maxRootDepthFraction_short_natural_05min.map
rootFraction1NC    = /projects/0/dfguu/users/edwin/data/joyce_land_cover_parameters/05min/hyde_5min_1900/rootFraction1_short_natural_05min.map
rootFraction2NC    = /projects/0/dfguu/users/edwin/data/joyce_land_cover_parameters/05min/hyde_5min_1900/rootFraction2_short_natural_05min.map
maxRootDepthNC     = 0.5
arnoBetaNC         = None

cropCoefficientNC = /projects/0/dfguu/users/edwin/data/joyce_land_cover_parameters/05min/hyde_5min_1900/cropCoefficient_short_natural.nc
interceptCapNC    = /projects/0/dfguu/users/edwin/data/joyce_land_cover_parameters/05min/hyde_5min_1900/interceptionCapacity_short_natural.nc
coverFractionNC   = /projects/0/dfguu/users/edwin/data/joyce_land_cover_parameters/05min/hyde_5min_1900/coverFraction_short_natural.nc

# initial conditions:
interceptStorIni = /scratch-shared/edwinhs/05min_runs_february_2016_begin/pcrglobwb_only_from_1901_6LCs_original_parameter_set_natural/no_correction/global/states/interceptStor_grassland_1928-12-31.map
snowCoverSWEIni  = /scratch-shared/edwinhs/05min_runs_february_2016_begin/pcrglobwb_only_from_1901_6LCs_original_parameter_set_natural/no_correction/global/states/snowCoverSWE_grassland_1928-12-31.map
snowFreeWaterIni = /scratch-shared/edwinhs/05min_runs_february_2016_begin/pcrglobwb_only_from_1901_6LCs_original_parameter_set_natural/no_correction/global/states/snowFreeWater_grassland_1928-12-31.map
topWaterLayerIni = /scratch-shared/edwinhs/05min_runs_february_2016_begin/pcrglobwb_only_from_1901_6LCs_original_parameter_set_natural/no_correction/global/states/topWaterLayer_grassland_1928-12-31.map
storUppIni       = /scratch-shared/edwinhs/05min_runs_february_2016_begin/pcrglobwb_only_from_1901_6LCs_original_parameter_set_natural/no_correction/global/states/storUpp_grassland_1928-12-31.map
storLowIni       = /scratch-shared/edwinhs/05min_runs_february_2016_begin/pcrglobwb_only_from_1901_6LCs_original_parameter_set_natural/no_correction/global/states/storLow_grassland_1928-12-31.map
interflowIni     = /scratch-shared/edwinhs/05min_runs_february_2016_begin/pcrglobwb_only_from_1901_6LCs_original_parameter_set_natural/no_correction/global/states/interflow_grassland_1928-12-31.map

[pastureOptions]

name = pasture
debugWaterBalance = True

# snow module properties
snowModuleType      =  Simple
freezingT           =  0.0
degreeDayFactor     =  0.0025
snowWaterHoldingCap =  0.1
refreezingCoeff     =  0.05

# other paramater values
minTopWaterLayer = 0.0
minCropKC        = 0.2

# Parameters for the Arno's scheme:
arnoBeta = None
# If arnoBeta is defined, the soil water capacity distribution is based on this.
# If arnoBeta is NOT defined, maxSoilDepthFrac must be defined such that arnoBeta will be calculated based on maxSoilDepthFrac and minSoilDepthFrac.

fracVegCoverNC     = /projects/0/dfguu/users/edwin/data/joyce_land_cover_parameters/05min/landcover_fractions/vegetation_fraction_pasture_grid_corrected.nc4
minSoilDepthFracNC = /projects/0/dfguu/users/edwin/data/joyce_land_cover_parameters/05min/hyde_5min_1900/minRootDepthFraction_pasture_05min.map
maxSoilDepthFracNC = /projects/0/dfguu/users/edwin/data/joyce_land_cover_parameters/05min/hyde_5min_1900/maxRootDepthFraction_pasture_05min.map
rootFraction1NC    = /projects/0/dfguu/users/edwin/data/joyce_land_cover_parameters/05min/hyde_5min_1900/rootFraction1_pasture_05min.map
rootFraction2NC    = /projects/0/dfguu/users/edwin/data/joyce_land_cover_parameters/05min/hyde_5min_1900/rootFraction2_pasture_05min.map
maxRootDepthNC     = 0.5
arnoBetaNC         = None

cropCoefficientNC = /projects/0/dfguu/users/edwin/data/joyce_land_cover_parameters/05min/hyde_5min_1900/cropCoefficient_pasture.nc
interceptCapNC    = /projects/0/dfguu/users/edwin/data/joyce_land_cover_parameters/05min/hyde_5min_1900/interceptionCapacity_pasture.nc
coverFractionNC   = /projects/0/dfguu/users/edwin/data/joyce_land_cover_parameters/05min/hyde_5min_1900/coverFraction_pasture.nc

# initial conditions:
interceptStorIni = /scratch-shared/edwinhs/05min_runs_february_2016_begin/pcrglobwb_only_from_1901_6LCs_original_parameter_set_natural/no_correction/global/states/interceptStor_pasture_1928-12-31.map
snowCoverSWEIni  = /scratch-shared/edwinhs/05min_runs_february_2016_begin/pcrglobwb_only_from_1901_6LCs_original_parameter_set_natural/no_correction/global/states/snowCoverSWE_pasture_1928-12-31.map
snowFreeWaterIni = /scratch-shared/edwinhs/05min_runs_february_2016_begin/pcrglobwb_only_from_1901_6LCs_original_parameter_set_natural/no_correction/global/states/snowFreeWater_pasture_1928-12-31.map
topWaterLayerIni = /scratch-shared/edwinhs/05min_runs_february_2016_begin/pcrglobwb_only_from_1901_6LCs_original_parameter_set_natural/no_correction/global/states/topWaterLayer_pasture_1928-12-31.map
storUppIni       = /scratch-shared/edwinhs/05min_runs_february_2016_begin/pcrglobwb_only_from_1901_6LCs_original_parameter_set_natural/no_correction/global/states/storUpp_pasture_1928-12-31.map
storLowIni       = /scratch-shared/edwinhs/05min_runs_february_2016_begin/pcrglobwb_only_from_1901_6LCs_original_parameter_set_natural/no_correction/global/states/storLow_pasture_1928-12-31.map
interflowIni     = /scratch-shared/edwinhs/05min_runs_february_2016_begin/pcrglobwb_only_from_1901_6LCs_original_parameter_set_natural/no_correction/global/states/interflow_pasture_1928-12-31.map

[rainfedCropsOptions]

name = rainfedCrops
debugWaterBalance = True

# snow module properties
snowModuleType      =  Simple
freezingT           =  0.0
degreeDayFactor     =  0.0025
snowWaterHoldingCap =  0.1
refreezingCoeff     =  0.05

# other paramater values
minTopWaterLayer = 0.0
minCropKC        = 0.2

# Parameters for the Arno's scheme:
arnoBeta = None
# If arnoBeta is defined, the soil water capacity distribution is based on this.
# If arnoBeta is NOT defined, maxSoilDepthFrac must be defined such that arnoBeta will be calculated based on maxSoilDepthFrac and minSoilDepthFrac.

fracVegCoverNC     = /projects/0/dfguu/users/edwin/data/joyce_land_cover_parameters/05min/landcover_fractions/vegetation_fraction_rainfed_crops_grid_corrected.nc4
minSoilDepthFracNC = /projects/0/dfguu/users/edwin/data/joyce_land_cover_parameters/05min/hyde_5min_1900/minRootDepthFraction_rainfed_crops_05min.map
maxSoilDepthFracNC = /projects/0/dfguu/users/edwin/data/joyce_land_cover_parameters/05min/hyde_5min_1900/maxRootDepthFraction_rainfed_crops_05min.map
rootFraction1NC    = /projects/0/dfguu/users/edwin/data/joyce_land_cover_parameters/05min/hyde_5min_1900/rootFraction1_rainfed_crops_05min.map
rootFraction2NC    = /projects/0/dfguu/users/edwin/data/joyce_land_cover_parameters/05min/hyde_5min_1900/rootFraction2_rainfed_crops_05min.map
maxRootDepthNC     = 0.5
arnoBetaNC         = None

cropCoefficientNC = /projects/0/dfguu/users/edwin/data/joyce_land_cover_parameters/05min/hyde_5min_1900/cropCoefficient_rainfed_crops.nc
interceptCapNC    = /projects/0/dfguu/users/edwin/data/joyce_land_cover_parameters/05min/hyde_5min_1900/interceptionCapacity_rainfed_crops.nc
coverFractionNC   = /projects/0/dfguu/users/edwin/data/joyce_land_cover_parameters/05min/hyde_5min_1900/coverFraction_rainfed_crops.nc

# initial conditions:
interceptStorIni = /scratch-shared/edwinhs/05min_runs_february_2016_begin/pcrglobwb_only_from_1901_6LCs_original_parameter_set_natural/no_correction/global/states/interceptStor_rainfedCrops_1928-12-31.map
snowCoverSWEIni  = /scratch-shared/edwinhs/05min_runs_february_2016_begin/pcrglobwb_only_from_1901_6LCs_original_parameter_set_natural/no_correction/global/states/snowCoverSWE_rainfedCrops_1928-12-31.map
snowFreeWaterIni = /scratch-shared/edwinhs/05min_runs_february_2016_begin/pcrglobwb_only_from_1901_6LCs_original_parameter_set_natural/no_correction/global/states/snowFreeWater_rainfedCrops_1928-12-31.map
topWaterLayerIni = /scratch-shared/edwinhs/05min_runs_february_2016_begin/pcrglobwb_only_from_1901_6LCs_original_parameter_set_natural/no_correction/global/states/topWaterLayer_rainfedCrops_1928-12-31.map
storUppIni       = /scratch-shared/edwinhs/05min_runs_february_2016_begin/pcrglobwb_only_from_1901_6LCs_original_parameter_set_natural/no_correction/global/states/storUpp_rainfedCrops_1928-12-31.map
storLowIni       = /scratch-shared/edwinhs/05min_runs_february_2016_begin/pcrglobwb_only_from_1901_6LCs_original_parameter_set_natural/no_correction/global/states/storLow_rainfedCrops_1928-12-31.map
interflowIni     = /scratch-shared/edwinhs/05min_runs_february_2016_begin/pcrglobwb_only_from_1901_6LCs_original_parameter_set_natural/no_correction/global/states/interflow_rainfedCrops_1928-12-31.map

[irrPaddyOptions]

name = irrPaddy
debugWaterBalance = True

# snow module properties
snowModuleType      =  Simple
freezingT           =  0.0
degreeDayFactor     =  0.0025
snowWaterHoldingCap =  0.1
refreezingCoeff     =  0.05

# other paramater values
minTopWaterLayer = 0.05
minCropKC        = 0.2
cropDeplFactor   = 0.2

# Parameters for the Arno's scheme:
arnoBeta = None
# If arnoBeta is defined, the soil water capacity distribution is based on this.
# If arnoBeta is NOT defined, maxSoilDepthFrac must be defined such that arnoBeta will be calculated based on maxSoilDepthFrac and minSoilDepthFrac.

fracVegCoverNC     = /projects/0/dfguu/users/edwin/data/joyce_land_cover_parameters/05min/landcover_fractions/vegetation_fraction_paddy_grid_corrected.nc4
minSoilDepthFracNC = /projects/0/dfguu/users/edwin/data/joyce_land_cover_parameters/05min/hyde_5min_1900/minRootDepthFraction_paddy_05min.map
maxSoilDepthFracNC = /projects/0/dfguu/users/edwin/data/joyce_land_cover_parameters/05min/hyde_5min_1900/maxRootDepthFraction_paddy_05min.map
rootFraction1NC    = /projects/0/dfguu/users/edwin/data/joyce_land_cover_parameters/05min/hyde_5min_1900/rootFraction1_paddy_05min.map
rootFraction2NC    = /projects/0/dfguu/users/edwin/data/joyce_land_cover_parameters/05min/hyde_5min_1900/rootFraction2_paddy_05min.map
maxRootDepthNC     = 0.5
arnoBetaNC         = None

cropCoefficientNC = /projects/0/dfguu/users/edwin/data/joyce_land_cover_parameters/05min/hyde_5min_1900/cropCoefficient_paddy.nc
interceptCapNC    = /projects/0/dfguu/users/edwin/data/joyce_land_cover_parameters/05min/hyde_5min_1900/interceptionCapacity_paddy.nc
coverFractionNC   = /projects/0/dfguu/users/edwin/data/joyce_land_cover_parameters/05min/hyde_5min_1900/coverFraction_paddy.nc

# initial conditions:
interceptStorIni = /scratch-shared/edwinhs/05min_runs_february_2016_begin/pcrglobwb_only_from_1901_6LCs_original_parameter_set_natural/no_correction/global/states/interceptStor_irrPaddy_1928-12-31.map
snowCoverSWEIni  = /scratch-shared/edwinhs/05min_runs_february_2016_begin/pcrglobwb_only_from_1901_6LCs_original_parameter_set_natural/no_correction/global/states/snowCoverSWE_irrPaddy_1928-12-31.map
snowFreeWaterIni = /scratch-shared/edwinhs/05min_runs_february_2016_begin/pcrglobwb_only_from_1901_6LCs_original_parameter_set_natural/no_correction/global/states/snowFreeWater_irrPaddy_1928-12-31.map
topWaterLayerIni = /scratch-shared/edwinhs/05min_runs_february_2016_begin/pcrglobwb_only_from_1901_6LCs_original_parameter_set_natural/no_correction/global/states/topWaterLayer_irrPaddy_1928-12-31.map
storUppIni       = /scratch-shared/edwinhs/05min_runs_february_2016_begin/pcrglobwb_only_from_1901_6LCs_original_parameter_set_natural/no_correction/global/states/storUpp_irrPaddy_1928-12-31.map
storLowIni       = /scratch-shared/edwinhs/05min_runs_february_2016_begin/pcrglobwb_only_from_1901_6LCs_original_parameter_set_natural/no_correction/global/states/storLow_irrPaddy_1928-12-31.map
interflowIni     = /scratch-shared/edwinhs/05min_runs_february_2016_begin/pcrglobwb_only_from_1901_6LCs_original_parameter_set_natural/no_correction/global/states/interflow_irrPaddy_1928-12-31.map

[irrNonPaddyOptions]

name = irrNonPaddy
debugWaterBalance = True

# snow module properties
snowModuleType      =  Simple
freezingT           =  0.0
degreeDayFactor     =  0.0025
snowWaterHoldingCap =  0.1
refreezingCoeff     =  0.05

# other paramater values
minTopWaterLayer = 0.0
minCropKC        = 0.2
cropDeplFactor   = 0.2

# Parameters for the Arno's scheme:
arnoBeta = None
# If arnoBeta is defined, the soil water capacity distribution is based on this.
# If arnoBeta is NOT defined, maxSoilDepthFrac must be defined such that arnoBeta will be calculated based on maxSoilDepthFrac and minSoilDepthFrac.

fracVegCoverNC     = /projects/0/dfguu/users/edwin/data/joyce_land_cover_parameters/05min/landcover_fractions/vegetation_fraction_non_paddy_crops_grid_corrected.nc4
minSoilDepthFracNC = /projects/0/dfguu/users/edwin/data/joyce_land_cover_parameters/05min/hyde_5min_1900/minRootDepthFraction_non_paddy_crops_05min.map
maxSoilDepthFracNC = /projects/0/dfguu/users/edwin/data/joyce_land_cover_parameters/05min/hyde_5min_1900/maxRootDepthFraction_non_paddy_crops_05min.map
rootFraction1NC    = /projects/0/dfguu/users/edwin/data/joyce_land_cover_parameters/05min/hyde_5min_1900/rootFraction1_non_paddy_crops_05min.map
rootFraction2NC    = /projects/0/dfguu/users/edwin/data/joyce_land_cover_parameters/05min/hyde_5min_1900/rootFraction2_non_paddy_crops_05min.map
maxRootDepthNC     = 1.0
arnoBetaNC         = None

cropCoefficientNC = /projects/0/dfguu/users/edwin/data/joyce_land_cover_parameters/05min/hyde_5min_1900/cropCoefficient_non_paddy_crops.nc
interceptCapNC    = /projects/0/dfguu/users/edwin/data/joyce_land_cover_parameters/05min/hyde_5min_1900/interceptionCapacity_non_paddy_crops.nc
coverFractionNC   = /projects/0/dfguu/users/edwin/data/joyce_land_cover_parameters/05min/hyde_5min_1900/coverFraction_non_paddy_crops.nc

# initial conditions:
interceptStorIni = /scratch-shared/edwinhs/05min_runs_february_2016_begin/pcrglobwb_only_from_1901_6LCs_original_parameter_set_natural/no_correction/global/states/interceptStor_irrNonPaddy_1928-12-31.map
snowCoverSWEIni  = /scratch-shared/edwinhs/05min_runs_february_2016_begin/pcrglobwb_only_from_1901_6LCs_original_parameter_set_natural/no_correction/global/states/snowCoverSWE_irrNonPaddy_1928-12-31.map
snowFreeWaterIni = /scratch-shared/edwinhs/05min_runs_february_2016_begin/pcrglobwb_only_from_1901_6LCs_original_parameter_set_natural/no_correction/global/states/snowFreeWater_irrNonPaddy_1928-12-31.map
topWaterLayerIni = /scratch-shared/edwinhs/05min_runs_february_2016_begin/pcrglobwb_only_from_1901_6LCs_original_parameter_set_natural/no_correction/global/states/topWaterLayer_irrNonPaddy_1928-12-31.map
storUppIni       = /scratch-shared/edwinhs/05min_runs_february_2016_begin/pcrglobwb_only_from_1901_6LCs_original_parameter_set_natural/no_correction/global/states/storUpp_irrNonPaddy_1928-12-31.map
storLowIni       = /scratch-shared/edwinhs/05min_runs_february_2016_begin/pcrglobwb_only_from_1901_6LCs_original_parameter_set_natural/no_correction/global/states/storLow_irrNonPaddy_1928-12-31.map
interflowIni     = /scratch-shared/edwinhs/05min_runs_february_2016_begin/pcrglobwb_only_from_1901_6LCs_original_parameter_set_natural/no_correction/global/states/interflow_irrNonPaddy_1928-12-31.map

[groundwaterOptions]

debugWaterBalance = True

groundwaterPropertiesNC = PCRGLOBWB20/input5min/groundwater/groundwaterProperties5ArcMin.nc

# minimum value for groundwater recession coefficient (day-1)
minRecessionCoeff = 1.0e-4

# initial conditions:
storGroundwaterIni       = /scratch-shared/edwinhs/05min_runs_february_2016_begin/pcrglobwb_only_from_1901_6LCs_original_parameter_set_natural/no_correction/global/states/storGroundwater_1928-12-31.map
storGroundwaterFossilIni = /scratch-shared/edwinhs/05min_runs_february_2016_begin/pcrglobwb_only_from_1901_6LCs_original_parameter_set_natural/no_correction/global/states/storGroundwaterFossil_1928-12-31.map
#
# additional initial conditions for pumping behaviors
avgNonFossilGroundwaterAllocationLongIni  = /scratch-shared/edwinhs/05min_runs_february_2016_begin/pcrglobwb_only_from_1901_6LCs_original_parameter_set_natural/no_correction/global/states/avgNonFossilGroundwaterAllocationLong_1928-12-31.map
avgNonFossilGroundwaterAllocationShortIni = /scratch-shared/edwinhs/05min_runs_february_2016_begin/pcrglobwb_only_from_1901_6LCs_original_parameter_set_natural/no_correction/global/states/avgNonFossilGroundwaterAllocationShort_1928-12-31.map
avgTotalGroundwaterAbstractionIni         = /scratch-shared/edwinhs/05min_runs_february_2016_begin/pcrglobwb_only_from_1901_6LCs_original_parameter_set_natural/no_correction/global/states/avgTotalGroundwaterAbstraction_1928-12-31.map   
avgTotalGroundwaterAllocationLongIni      = /scratch-shared/edwinhs/05min_runs_february_2016_begin/pcrglobwb_only_from_1901_6LCs_original_parameter_set_natural/no_correction/global/states/avgTotalGroundwaterAllocationLong_1928-12-31.map
avgTotalGroundwaterAllocationShortIni     = /scratch-shared/edwinhs/05min_runs_february_2016_begin/pcrglobwb_only_from_1901_6LCs_original_parameter_set_natural/no_correction/global/states/avgTotalGroundwaterAllocationShort_1928-12-31.map
#
# additional initial conditions for MODFLOW run
relativeGroundwaterHeadIni = /scratch-shared/edwinhs/05min_runs_february_2016_begin/pcrglobwb_only_from_1901_6LCs_original_parameter_set_natural/no_correction/global/states/relativeGroundwaterHead_1928-12-31.map
baseflowIni                = /scratch-shared/edwinhs/05min_runs_february_2016_begin/pcrglobwb_only_from_1901_6LCs_original_parameter_set_natural/no_correction/global/states/baseflow_1928-12-31.map  

# assumption for the minimum transmissivity value (unit: m2/day) that can be extracted (via capillary rise and/or groundwater abstraction) 
minTransimissivityForProductiveAquifer = 50.0
# - if None, abstraction and/or capillary rise can always occur everywhere and unlimited
# - TODO: Shall we also defined the minimum value for storage coefficient?

[routingOptions]

debugWaterBalance = True

lddMap      = PCRGLOBWB20/input5min/routing/lddsound_05min.map
cellAreaMap = PCRGLOBWB20/input5min/routing/cellsize05min.correct.map
#~ gradient    = PCRGLOBWB20/input5min/routing/slope05min.map
gradient    = /projects/0/dfguu/users/edwin/data/floodplain_05arcmin_world_final/based_on_daily_runoff/map/channel_gradient.map

# manning coefficient
manningsN   = 0.04

# manning coefficient for floodplain
floodplainManningsN= 0.07

# routing method: (options are kinematicWave, simplifiedKinematicWave and accuTravelTime)
routingMethod = accuTravelTime
#~ routingMethod = kinematicWave

# Option for flood plain simulation