[globalOptions]


# Set the pcrglobwb output directory in an absolute path.
outputDir    = MAIN_OUTPUT_DIR


# Set the input directory map in an absolute path . 
# - The locations of input parameter files will be relative to the following "inputDir".
inputDir     = /scratch/depfg/sutan101/data/pcrglobwb_input_aqueduct/version_2021-09-16/


# Map of clone (must be provided in PCRaster maps)
# - Spatial resolution and coverage are based on this map:
cloneMap     = general/cloneMaps/global_parallelization/mask_M%i.map


# The area/landmask of interest:
# If None, area/landmask is limited for cells with ldd value. 
#~ landmask  = None
landmask     = general/cloneMaps/global_parallelization/mask_M%i.map


# netcdf attributes for output files:
institution = Department of Physical Geography, Utrecht University
title       = PCR-GLOBWB 2 output (not coupled to MODFLOW), NATURALIZED version of the WRI Aqueduct project - MAIN_OUTPUT_DIR
description = by Edwin H. Sutanudjaja (contact: e.h.sutanudjaja@uu.nl), PCR-GLOBWB run without human factors (naturalized) at 5 arcmin resolution


# starting and end dates

startTime    = STARTING_DATE
endTime      = END_DATE


# spinning up options:
maxSpinUpsInYears    = NUMBER_OF_SPINUP_YEARS
minConvForSoilSto    = 0.0
minConvForGwatSto    = 0.0
minConvForChanSto    = 0.0
minConvForTotlSto    = 0.0

# option/directory for saving the spin-up directory 
spinUpOutputDir = True


# with merging
with_merging    = True
#~ with_merging = False

cloneAreas = Global


[meteoOptions]

# Set the forcing temperature and precipitation files
precipitationNC    = PRECIPITATION_FORCING_FILE
temperatureNC      = TEMPERATURE_FORCING_FILE


# conversion constants and factors to correct forcing values (optional) so that the units are in m.day-1 and degree Celcius                                                                                                           
precipitationConstant    = 0.0
precipitationFactor      = 86.4
temperatureConstant      = -273.15
temperatureFactor        = 1.0


# Method to calculate referencePotETP (reference potential evaporation+transpiration)
referenceETPotMethod = Penman-Monteith
refETPotFileNC       = None


#~ # - test with Hamon
#~ referenceETPotMethod = Hamon
#~ refETPotFileNC       = None

#~ # - using the input file
#~ referenceETPotMethod    = Input
#~ refETPotFileNC          = /scratch/depfg/sutan101/pcrglobwb_aqueduct_2021/version_2021-06-23_w5e5v2_updated_gmd_parameters/global/merged_ref_pot_et/merged_1979-2019_with_climatology_on_1978/referencePotET_dailyTot_output_1979-2019_with_climatology_on_1978.nc


# meteo variables for calculating reference potential evaporation based on Penman-Monteith (optional)
#
# - 10 m wind speed, unit: m.s-1
wind_speed_10m              = WIND_FORCING_FILE
#~ # - if wind_speed_10m is None, it will be estimated from u and v components
#~ wind_speed_10m_u_comp    = None
#~ wind_speed_10m_v_comp    = None
#
# - atmospheric pressure, unit: Pascal
atmospheric_pressure        = PRESSURE_FORCING_FILE
#
# - shortwave (solar) radiation, unit: J.m-2.day-1 (default) or W.m-2
shortwave_radiation_input_in_w_per_m2 = True 
shortwave_radiation  = SHORTWAVE_RADIATION_FORCING_FILE
#
# - relative humidity, unit: 1 
relative_humidity    = RELATIVE_HUMIDITY_FORCING_FILE
#
# - conversion constant for the relative_humidity so that the values ranging from 0 to 1
consta_for_relative_humidity = 0.0                                                                                                      
factor_for_relative_humidity = 0.01 

# initial conditions:
avgAnnualDiurnalDeltaTempIni = MAIN_INITIAL_STATE_FOLDER/avgAnnualDiurnalDeltaTemp_DATE_FOR_INITIAL_STATES.map
avgAnnualPrecipitationIni    = MAIN_INITIAL_STATE_FOLDER/avgAnnualPrecipitation_DATE_FOR_INITIAL_STATES.map
avgAnnualTemperatureIni      = MAIN_INITIAL_STATE_FOLDER/avgAnnualTemperature_DATE_FOR_INITIAL_STATES.map


[meteoDownscalingOptions]
# This section is for a 5 arcmin run, for downscaling meteorological forcing at 30 arcmin to 5 arcmin.  
                                                                                                                                        
downscalePrecipitation  = False                                                                                                                                   
downscaleTemperature    = True                                                                                                                                   
downscaleReferenceETPot = False                                                                                                                                   
   
# downscaling (based on the digital elevation model):                                                                                                            
# The downscaling will be performed by providing the "cellIds" (meteoDownscaleIds) of lower resolution cells.                                                    
meteoDownscaleIds = general/uniqueIds_30min.nc                                                                      
highResolutionDEM = general/dem_average_topography_parameters_5min_april_2021_global_covered_with_zero.nc                                                                           
   
# lapse rates:                                                                                                                                                   
temperLapseRateNC = general/temperature_slope.nc                                                                     
precipLapseRateNC = general/precipitation_slope.nc                                                                   
                                                                                                                                                                 
# downscaling criteria (TODO: remove these):                                                                                                                     
temperatCorrelNC  = general/temperature_correl.nc                                                                     
precipitCorrelNC  = general/precipitation_correl.nc                                                                   
                                                                                                                                                                 
# windows length (unit: arc-degree) for smoothing/averaging forcing data (not recommended):                                                                      
smoothingWindowsLength = 0


[landSurfaceOptions]

debugWaterBalance = True

numberOfUpperSoilLayers = 2

# soil and parameters
# - they are used for all land cover types, unless they are are defined in certain land cover type options 
#   (e.g. different/various soil types for agriculture areas)  
topographyNC = general/topography_parameters_5min_april_2021_global_covered_with_zero.nc

# - using soilGrids
soilPropertiesNC        = None
# - if soilPropertiesNC = None, the following soil parameters will be used
firstStorDepth          = general/layerDepth_average_1_global_05arcmin.nc
secondStorDepth         = general/layerDepth_average_2_global_05arcmin.nc
soilWaterStorageCap1    = general/WHC_average_1_global_05arcmin.nc
soilWaterStorageCap2    = general/WHC_average_2_global_05arcmin.nc
airEntryValue1          = general/psiAir_average_1_global_05arcmin.nc
airEntryValue2          = general/psiAir_average_2_global_05arcmin.nc
poreSizeBeta1           = general/BCH_average_1_global_05arcmin.nc
poreSizeBeta2           = general/BCH_average_2_global_05arcmin.nc
resVolWC1               = general/vmcRes_average_1_global_05arcmin.nc
resVolWC2               = general/vmcRes_average_2_global_05arcmin.nc
satVolWC1               = general/vmcSat_average_1_global_05arcmin.nc
satVolWC2               = general/vmcSat_average_2_global_05arcmin.nc
KSat1                   = general/kSat_average_1_global_05arcmin.nc
KSat2                   = general/kSat_average_2_global_05arcmin.nc
					    
percolationImp          = general/global_05min_impeded_drainage_permafrost_dsmw_correct_lats.nc


includeDomesticWaterDemand  = False
includeIndustryWaterDemand  = False
includeLivestockWaterDemand = False

includeIrrigation = False




[forestOptions]

name = forest
debugWaterBalance = True

# snow module properties
snowModuleType      =  Simple
freezingT           =  0.0
degreeDayFactor     =  0.0055
snowWaterHoldingCap =  0.1
refreezingCoeff     =  0.05


landCoverMapsNC   = None
# If NC file is not provided, we have to provide the following pcraster maps:

fracVegCover      = general/vegf_tall.map
minSoilDepthFrac  = general/minf_tall.map
maxSoilDepthFrac  = general/maxf_tall.map
rootFraction1     = general/rfrac1_tall.map
rootFraction2     = general/rfrac2_tall.map
maxRootDepth      = 1.0
# Note: The maxRootDepth is not used for non irrigated land cover type. 	
#
# Parameters for the Arno's scheme:
arnoBeta = None
# If arnoBeta is defined, the soil water capacity distribution is based on this.
# If arnoBeta is NOT defined, maxSoilDepthFrac must be defined such that arnoBeta will be calculated based on maxSoilDepthFrac and minSoilDepthFrac.


cropCoefficientNC = general/tall_crop_coefficient.nc
coverFractionNC   = general/tall_cover_fraction.nc
interceptCapNC    = general/tall_intercept_capacity.nc


# other paramater values
minTopWaterLayer  = 0.0
minCropKC         = 0.2
minInterceptCap   = 0.0002


noParameterExtrapolation = True


# initial conditions:
interceptStorIni = MAIN_INITIAL_STATE_FOLDER/interceptStor_forest_DATE_FOR_INITIAL_STATES.map
snowCoverSWEIni  = MAIN_INITIAL_STATE_FOLDER/snowCoverSWE_forest_DATE_FOR_INITIAL_STATES.map
snowFreeWaterIni = MAIN_INITIAL_STATE_FOLDER/snowFreeWater_forest_DATE_FOR_INITIAL_STATES.map
topWaterLayerIni = MAIN_INITIAL_STATE_FOLDER/topWaterLayer_forest_DATE_FOR_INITIAL_STATES.map
storUppIni       = MAIN_INITIAL_STATE_FOLDER/storUpp_forest_DATE_FOR_INITIAL_STATES.map
storLowIni       = MAIN_INITIAL_STATE_FOLDER/storLow_forest_DATE_FOR_INITIAL_STATES.map
interflowIni     = MAIN_INITIAL_STATE_FOLDER/interflow_forest_DATE_FOR_INITIAL_STATES.map




[grasslandOptions]

name = grassland
debugWaterBalance = True

# snow module properties
snowModuleType      =  Simple
freezingT           =  0.0
degreeDayFactor     =  0.0055
snowWaterHoldingCap =  0.1
refreezingCoeff     =  0.05


landCoverMapsNC   = None
# If NC file is not provided, we have to provide the following pcraster maps:

fracVegCover      = general/vegf_short.map

minSoilDepthFrac  = general/minf_short.map
maxSoilDepthFrac  = general/maxf_short.map
rootFraction1     = general/rfrac1_short.map
rootFraction2     = general/rfrac2_short.map
maxRootDepth      = 0.5
# Note: The maxRootDepth is not used for non irrigated land cover type. 	
#
# Parameters for the Arno's scheme:
arnoBeta = None
# If arnoBeta is defined, the soil water capacity distribution is based on this.
# If arnoBeta is NOT defined, maxSoilDepthFrac must be defined such that arnoBeta will be calculated based on maxSoilDepthFrac and minSoilDepthFrac.


cropCoefficientNC = general/short_crop_coefficient.nc
coverFractionNC   = general/short_cover_fraction.nc
interceptCapNC    = general/short_intercept_capacity.nc


# other paramater values
minTopWaterLayer = 0.0
minCropKC        = 0.2
minInterceptCap  = 0.0002


noParameterExtrapolation = True


# initial conditions:
interceptStorIni = MAIN_INITIAL_STATE_FOLDER/interceptStor_grassland_DATE_FOR_INITIAL_STATES.map
snowCoverSWEIni  = MAIN_INITIAL_STATE_FOLDER/snowCoverSWE_grassland_DATE_FOR_INITIAL_STATES.map
snowFreeWaterIni = MAIN_INITIAL_STATE_FOLDER/snowFreeWater_grassland_DATE_FOR_INITIAL_STATES.map
topWaterLayerIni = MAIN_INITIAL_STATE_FOLDER/topWaterLayer_grassland_DATE_FOR_INITIAL_STATES.map
storUppIni       = MAIN_INITIAL_STATE_FOLDER/storUpp_grassland_DATE_FOR_INITIAL_STATES.map
storLowIni       = MAIN_INITIAL_STATE_FOLDER/storLow_grassland_DATE_FOR_INITIAL_STATES.map
interflowIni     = MAIN_INITIAL_STATE_FOLDER/interflow_grassland_DATE_FOR_INITIAL_STATES.map








[groundwaterOptions]

debugWaterBalance = True

groundwaterPropertiesNC = None
specificYield  = general/specific_yield_aquifer_05min.map
kSatAquifer    = general/k_conductivity_aquifer_05min.map
recessionCoeff = general/recession_coefficient_05min.map


# minimum value for groundwater recession coefficient (day-1) 
# - about 11 years
minRecessionCoeff = 0.00025


# some options for constraining groundwater abstraction
limitFossilGroundWaterAbstraction      = True
estimateOfRenewableGroundwaterCapacity = 0.0
estimateOfTotalGroundwaterThickness    = general/thickness_05min_remapbil_to_30sec_filled_with_pcr_correct_lat_upscaled_back_to_05min_with_remapcon.nc
# minimum and maximum total groundwater thickness 
minimumTotalGroundwaterThickness       = 100.
maximumTotalGroundwaterThickness       = None

doNotExtrapolateThickness = True
noParameterExtrapolation  = True


# initial conditions:
storGroundwaterIni                           = MAIN_INITIAL_STATE_FOLDER/storGroundwater_DATE_FOR_INITIAL_STATES.map
#~ storGroundwaterIni                        = ESTIMATE_FROM_GROUNDWATER_RECHARGE_RATE

storGroundwaterFossilIni                     = MAIN_INITIAL_STATE_FOLDER/storGroundwaterFossil_DATE_FOR_INITIAL_STATES.map
#~ storGroundwaterFossilIni                  = Maximum

avgNonFossilGroundwaterAllocationLongIni     = MAIN_INITIAL_STATE_FOLDER/avgNonFossilGroundwaterAllocationLong_DATE_FOR_INITIAL_STATES.map
avgNonFossilGroundwaterAllocationShortIni    = MAIN_INITIAL_STATE_FOLDER/avgNonFossilGroundwaterAllocationShort_DATE_FOR_INITIAL_STATES.map
avgTotalGroundwaterAbstractionIni            = MAIN_INITIAL_STATE_FOLDER/avgTotalGroundwaterAbstraction_DATE_FOR_INITIAL_STATES.map
avgTotalGroundwaterAllocationLongIni         = MAIN_INITIAL_STATE_FOLDER/avgTotalGroundwaterAllocationLong_DATE_FOR_INITIAL_STATES.map
avgTotalGroundwaterAllocationShortIni        = MAIN_INITIAL_STATE_FOLDER/avgTotalGroundwaterAllocationShort_DATE_FOR_INITIAL_STATES.map
relativeGroundwaterHeadIni                   = MAIN_INITIAL_STATE_FOLDER/relativeGroundwaterHead_DATE_FOR_INITIAL_STATES.map
baseflowIni                                  = MAIN_INITIAL_STATE_FOLDER/baseflow_DATE_FOR_INITIAL_STATES.map

# we need avgStorGroundwater for a non linear groundwater reservoir
avgStorGroundwaterIni                        = MAIN_INITIAL_STATE_FOLDER/avgStorGroundwater_DATE_FOR_INITIAL_STATES.map


#~ # option to start with the maximum value for storGroundwaterFossilIni (this will set/lead to storGroundwaterFossilIni = Maximum ; overwrite/overrule existing storGroundwaterFossilIni)
#~ useMaximumStorGroundwaterFossilIni        = True
#~ useMaximumStorGroundwaterFossilIni        = False
#~ useMaximumStorGroundwaterFossilIni        = USE_MAXIMUM_STOR_GROUNDWATER_FOSSIL_INI


# option to start with the value of storGroundwaterIni estimated from groundwater recharge (this will set/lead to storGroundwaterIni = ESTIMATE_FROM_GROUNDWATER_RECHARGE_RATE)
#~ estimateStorGroundwaterIniFromRecharge    = True
#~ estimateStorGroundwaterIniFromRecharge    = False
#~ estimateStorGroundwaterIniFromRecharge    = ESTIMATE_STOR_GROUNDWATER_INI_FROM_RECHARGE
#~ dailyGroundwaterRechargeIni               = DAILY_GROUNDWATER_RECHARGE_INI


[routingOptions]

debugWaterBalance = True

# drainage direction map
lddMap           = general/lddsound_05min_version_20210330.map

# cell area (unit: m2)
cellAreaMap      = general/cdo_gridarea_clone_global_05min_correct_lats.nc

# routing method:
routingMethod = accuTravelTime

# manning coefficient
manningsN = 0.04

# Option for flood plain simulation
dynamicFloodPlain = True

# manning coefficient for floodplain
floodplainManningsN = 0.07


# channel gradient
gradient             = general/gradient_channel_parameters_5min_april_2021_global_covered_with_zero.nc

# constant channel depth 
constantChannelDepth = general/bankfull_depth_channel_parameters_5min_april_2021_global_covered_with_zero.nc

# constant channel width (optional)
constantChannelWidth = general/bankfull_width_channel_parameters_5min_april_2021_global_covered_with_zero.nc

# minimum channel width (optional)
minimumChannelWidth  = general/bankfull_width_channel_parameters_5min_april_2021_global_covered_with_zero.nc

# channel properties for flooding
bankfullCapacity     = None
# - If None, it will be estimated from (bankfull) channel depth (m) and width (m) 


# files for relative elevation (above minimum dem) 
relativeElevationFiles  = general/dzRel%04d_topography_parameters_5min_april_2021_global_covered_with_zero.nc
relativeElevationLevels = 0.0, 0.01, 0.05, 0.10, 0.20, 0.30, 0.40, 0.50, 0.60, 0.70, 0.80, 0.90, 1.00


# composite crop factors for WaterBodies: 
cropCoefficientWaterNC = general/cropCoefficientForOpenWater.nc
minCropWaterKC         = 1.00

# lake and reservoir parameters
onlyNaturalWaterBodies = True
waterBodyInputNC       = general/lakes_and_reservoirs_05min_global_version_20210330.nc


# initial conditions:
waterBodyStorageIni            = MAIN_INITIAL_STATE_FOLDER/waterBodyStorage_DATE_FOR_INITIAL_STATES.map
channelStorageIni              = MAIN_INITIAL_STATE_FOLDER/channelStorage_DATE_FOR_INITIAL_STATES.map
readAvlChannelStorageIni       = MAIN_INITIAL_STATE_FOLDER/readAvlChannelStorage_DATE_FOR_INITIAL_STATES.map
avgDischargeLongIni            = MAIN_INITIAL_STATE_FOLDER/avgDischargeLong_DATE_FOR_INITIAL_STATES.map
avgDischargeShortIni           = MAIN_INITIAL_STATE_FOLDER/avgDischargeShort_DATE_FOR_INITIAL_STATES.map
m2tDischargeLongIni            = MAIN_INITIAL_STATE_FOLDER/m2tDischargeLong_DATE_FOR_INITIAL_STATES.map
avgBaseflowLongIni             = MAIN_INITIAL_STATE_FOLDER/avgBaseflowLong_DATE_FOR_INITIAL_STATES.map
riverbedExchangeIni            = MAIN_INITIAL_STATE_FOLDER/riverbedExchange_DATE_FOR_INITIAL_STATES.map
subDischargeIni                = MAIN_INITIAL_STATE_FOLDER/subDischarge_DATE_FOR_INITIAL_STATES.map
avgLakeReservoirInflowShortIni = MAIN_INITIAL_STATE_FOLDER/avgLakeReservoirInflowShort_DATE_FOR_INITIAL_STATES.map
avgLakeReservoirOutflowLongIni = MAIN_INITIAL_STATE_FOLDER/avgLakeReservoirOutflowLong_DATE_FOR_INITIAL_STATES.map
timestepsToAvgDischargeIni     = MAIN_INITIAL_STATE_FOLDER/timestepsToAvgDischarge_DATE_FOR_INITIAL_STATES.map




[reportingOptions]

landmask_for_reporting = general/cloneMaps/global_parallelization/mask_M%i.map

# output files that will be written in the disk in netcdf files:
# - daily resolution
outDailyTotNC = referencePotET,baseflow,directRunoff,interflowTotal
# - monthly resolution
outMonthTotNC = actualET,irrPaddyWaterWithdrawal,irrNonPaddyWaterWithdrawal,domesticWaterWithdrawal,industryWaterWithdrawal,livestockWaterWithdrawal,runoff,totalRunoff,baseflow,directRunoff,interflowTotal,totalGroundwaterAbstraction,desalinationAbstraction,surfaceWaterAbstraction,fossilGroundwaterAbstraction,irrGrossDemand,nonIrrGrossDemand,totalGrossDemand,nonIrrWaterConsumption,nonIrrReturnFlow,precipitation,gwRecharge,surfaceWaterInf,referencePotET,totalEvaporation,totalPotentialEvaporation,totLandSurfaceActuaET,totalLandSurfacePotET,waterBodyActEvaporation,waterBodyPotEvaporation,precipitation_at_irrigation,netLqWaterToSoil_at_irrigation,evaporation_from_irrigation,transpiration_from_irrigation
outMonthAvgNC = discharge,temperature,dynamicFracWat,surfaceWaterStorage,interceptStor,snowFreeWater,snowCoverSWE,topWaterLayer,storUppTotal,storLowTotal,storGroundwater,storGroundwaterFossil,totalWaterStorageThickness,satDegUpp,satDegLow,channelStorage,waterBodyStorage
outMonthEndNC = totalWaterStorageThickness
# - annual resolution
outAnnuaTotNC = totalEvaporation,precipitation,gwRecharge,totalRunoff,baseflow,desalinationAbstraction,surfaceWaterAbstraction,nonFossilGroundwaterAbstraction,fossilGroundwaterAbstraction,totalGroundwaterAbstraction,totalAbstraction,irrGrossDemand,nonIrrGrossDemand,totalGrossDemand,nonIrrWaterConsumption,nonIrrReturnFlow,runoff,actualET,irrPaddyWaterWithdrawal,irrNonPaddyWaterWithdrawal,irrigationWaterWithdrawal,domesticWaterWithdrawal,industryWaterWithdrawal,livestockWaterWithdrawal,precipitation_at_irrigation,netLqWaterToSoil_at_irrigation,evaporation_from_irrigation,transpiration_from_irrigation
outAnnuaAvgNC = temperature,discharge,surfaceWaterStorage,waterBodyStorage,interceptStor,snowFreeWater,snowCoverSWE,topWaterLayer,storUppTotal,storLowTotal,storGroundwater,storGroundwaterFossil,totalWaterStorageThickness,satDegUpp,satDegLow,channelStorage,waterBodyStorage,fractionWaterBodyEvaporation,fractionTotalEvaporation,fracSurfaceWaterAllocation,fracDesalinatedWaterAllocation,gwRecharge
outAnnuaEndNC = surfaceWaterStorage,interceptStor,snowFreeWater,snowCoverSWE,topWaterLayer,storUppTotal,storLowTotal,storGroundwater,storGroundwaterFossil,totalWaterStorageThickness
# - monthly and annual maxima
outMonthMaxNC = channelStorage,dynamicFracWat,floodVolume,floodDepth,surfaceWaterLevel,discharge,totalRunoff
outAnnuaMaxNC = None


[mergingOutputOptions]

# output variables/files that will be merged:
outDailyTotNC = None
#~ outDailyTotNC = referencePotET,baseflow,directRunoff,interflowTotal
# - monthly resolution
outMonthTotNC = actualET,runoff,totalRunoff,baseflow,directRunoff,interflowTotal,totalGroundwaterAbstraction,desalinationAbstraction,surfaceWaterAbstraction,fossilGroundwaterAbstraction,irrGrossDemand,nonIrrGrossDemand,totalGrossDemand,nonIrrWaterConsumption,nonIrrReturnFlow,precipitation,gwRecharge,surfaceWaterInf,totalEvaporation,totalPotentialEvaporation,precipitation_at_irrigation,netLqWaterToSoil_at_irrigation,evaporation_from_irrigation,transpiration_from_irrigation
outMonthAvgNC = discharge,temperature,dynamicFracWat,surfaceWaterStorage,interceptStor,snowFreeWater,snowCoverSWE,topWaterLayer,storUppTotal,storLowTotal,storGroundwater,storGroundwaterFossil,totalWaterStorageThickness,satDegUpp,satDegLow,channelStorage,waterBodyStorage
outMonthEndNC = None
# - annual resolution
outAnnuaTotNC = totalEvaporation,precipitation,gwRecharge,totalRunoff,baseflow,desalinationAbstraction,surfaceWaterAbstraction,nonFossilGroundwaterAbstraction,fossilGroundwaterAbstraction,totalGroundwaterAbstraction,totalAbstraction,irrGrossDemand,nonIrrGrossDemand,totalGrossDemand,nonIrrWaterConsumption,nonIrrReturnFlow,runoff,actualET,irrPaddyWaterWithdrawal,irrNonPaddyWaterWithdrawal,irrigationWaterWithdrawal,domesticWaterWithdrawal,industryWaterWithdrawal,livestockWaterWithdrawal,precipitation_at_irrigation,netLqWaterToSoil_at_irrigation,evaporation_from_irrigation,transpiration_from_irrigation
outAnnuaAvgNC = temperature,discharge,gwRecharge
outAnnuaEndNC = None
# - monthly and annual maxima
outMonthMaxNC = channelStorage,dynamicFracWat,floodVolume,floodDepth,surfaceWaterLevel,discharge,totalRunoff
outAnnuaMaxNC = None

# netcdf format and zlib setup
formatNetCDF = NETCDF4
zlib = True


[globalMergingAndModflowOptions]

# the global clone map
cloneMap = general/lddsound_05min_version_20210330.map
landmask = None
online_coupling_between_pcrglobwb_and_modflow = False

# parallelization
number_of_clones = 53

# cell resolution in arcsec
cellsize_in_arcsec = 300

# model extent
xmin = -180             
ymin = -90             
xmax =  180            
ymax =  90
