[globalOptions]
outputDir = MAIN_OUTPUT_DIR
inputDir = /scratch/mo/nest/ulysses/operational_seasonal_forecast/ecflow_work/ulysses_v3_reforecast/data/pgb
cloneMap = land_mask_only.map
landmask = land_mask_only.map
institution = Department of Physical Geography, Utrecht University
title = PCR-GLOBWB output (not coupled to MODFLOW), development version for Ulysses
description = by Edwin H. Sutanudjaja (contact: e.h.sutanudjaja@uu.nl)
startTime = 1993-01-01
endTime = 1993-01-31
maxSpinUpsInYears = 0
minConvForSoilSto = 0.0
minConvForGwatSto = 0.0
minConvForChanSto = 0.0
minConvForTotlSto = 0.0

[meteoOptions]
referenceETPotMethod = Input
precipitationNC = /scratch/mo/nest/ulysses/operational_seasonal_forecast/ecflow_work/ulysses_v3_reforecast/reforecast_1993_01_01/m05/bias_cor/%04i/%02i/pre_%02i_%04i.nc
temperatureNC = /scratch/mo/nest/ulysses/operational_seasonal_forecast/ecflow_work/ulysses_v3_reforecast/reforecast_1993_01_01/m05/bias_cor/%04i/%02i/tavg_%02i_%04i.nc
refETPotFileNC = /scratch/mo/nest/ulysses/operational_seasonal_forecast/ecflow_work/ulysses_v3_reforecast/reforecast_1993_01_01/m05/bias_cor/%04i/%02i/pet_%02i_%04i.nc
precipitation_file_per_month = True
temperature_file_per_month = True
refETPotFileNC_file_per_month = True
precipitationVariableName = pre
temperatureVariableName = tavg
referenceEPotVariableName = pet
precipitationConstant = 0.0
precipitationFactor = 0.001
temperatureConstant = 0.0
temperatureFactor = 1.0
referenceEPotConstant = 0.0
referenceEPotFactor = 0.001
rounddownPrecipitation = False

[landSurfaceOptions]
debugWaterBalance = True
numberOfUpperSoilLayers = 2
topographyNC = pcrglobwb_topography_parameters_06min_22_july_2020.nc
soilPropertiesNC = soilgrids_properties_ulysses_6arcmin_filled.nc
noParameterExtrapolation = True
landCoverTypes = forest,grassland,crop,urban
noLandCoverFractionCorrection = False

[forestOptions]
name = forest
debugWaterBalance = True
snowModuleType = Simple
freezingT = 0.0
degreeDayFactor = 0.0025
snowWaterHoldingCap = 0.1
refreezingCoeff = 0.05
minTopWaterLayer = 0.0
minCropKC = 0.2
cropCoefficientNC = tall_natural_cropcoefficient_06min.nc
interceptCapNC = tall_natural_interceptioncapacity_06min.nc
coverFractionNC = tall_natural_groundcover_06min.nc
landCoverMapsNC = None
fracVegCover = fraction_tall_natural_06arcmin.map
minSoilDepthFrac = tall_natural_min_rootdepth_fraction_06min.map
maxSoilDepthFrac = tall_natural_max_rootdepth_fraction_06min.map
rootFraction1 = tall_natural_rootfraction_z1_06min.map
rootFraction2 = tall_natural_rootfraction_z2_06min.map
maxRootDepth = tall_natural_max_rootdepth_06min.map
arnoBeta = None
interceptStorIni = MAIN_INITIAL_STATE_FOLDER/interceptStor_forest_DATE_FOR_INITIAL_STATES.map
snowCoverSWEIni = MAIN_INITIAL_STATE_FOLDER/snowCoverSWE_forest_DATE_FOR_INITIAL_STATES.map
snowFreeWaterIni = MAIN_INITIAL_STATE_FOLDER/snowFreeWater_forest_DATE_FOR_INITIAL_STATES.map
topWaterLayerIni = MAIN_INITIAL_STATE_FOLDER/topWaterLayer_forest_DATE_FOR_INITIAL_STATES.map
storUppIni = MAIN_INITIAL_STATE_FOLDER/storUpp_forest_DATE_FOR_INITIAL_STATES.map
storLowIni = MAIN_INITIAL_STATE_FOLDER/storLow_forest_DATE_FOR_INITIAL_STATES.map
interflowIni = MAIN_INITIAL_STATE_FOLDER/interflow_forest_DATE_FOR_INITIAL_STATES.map

[grasslandOptions]
name = grassland
debugWaterBalance = True
snowModuleType = Simple
freezingT = 0.0
degreeDayFactor = 0.0025
snowWaterHoldingCap = 0.1
refreezingCoeff = 0.05
minTopWaterLayer = 0.0
minCropKC = 0.2
cropCoefficientNC = short_cropcoefficient_06min.nc
interceptCapNC = short_interceptioncapacity_06min.nc
coverFractionNC = short_groundcover_06min.nc
landCoverMapsNC = None
fracVegCover = fraction_short_natural_06arcmin.map
minSoilDepthFrac = short_min_rootdepth_fraction_06min.map
maxSoilDepthFrac = short_max_rootdepth_fraction_06min.map
rootFraction1 = short_rootfraction_z1_06min.map
rootFraction2 = short_rootfraction_z2_06min.map
maxRootDepth = short_max_rootdepth_06min.map
arnoBeta = None
interceptStorIni = MAIN_INITIAL_STATE_FOLDER/interceptStor_grassland_DATE_FOR_INITIAL_STATES.map
snowCoverSWEIni = MAIN_INITIAL_STATE_FOLDER/snowCoverSWE_grassland_DATE_FOR_INITIAL_STATES.map
snowFreeWaterIni = MAIN_INITIAL_STATE_FOLDER/snowFreeWater_grassland_DATE_FOR_INITIAL_STATES.map
topWaterLayerIni = MAIN_INITIAL_STATE_FOLDER/topWaterLayer_grassland_DATE_FOR_INITIAL_STATES.map
storUppIni = MAIN_INITIAL_STATE_FOLDER/storUpp_grassland_DATE_FOR_INITIAL_STATES.map
storLowIni = MAIN_INITIAL_STATE_FOLDER/storLow_grassland_DATE_FOR_INITIAL_STATES.map
interflowIni = MAIN_INITIAL_STATE_FOLDER/interflow_grassland_DATE_FOR_INITIAL_STATES.map

[urbanOptions]
name = urban
debugWaterBalance = True
snowModuleType = Simple
freezingT = 0.0
degreeDayFactor = 0.0025
snowWaterHoldingCap = 0.1
refreezingCoeff = 0.05
minTopWaterLayer = 0.0
minCropKC = 0.2
cropCoefficientNC = urban_cropcoefficient_06min.nc
interceptCapNC = urban_interceptioncapacity_06min.nc
coverFractionNC = urban_groundcover_06min.nc
landCoverMapsNC = None
fracVegCover = fraction_urban_06arcmin.map
minSoilDepthFrac = urban_min_rootdepth_fraction_06min.map
maxSoilDepthFrac = urban_max_rootdepth_fraction_06min.map
rootFraction1 = urban_rootfraction_z1_06min.map
rootFraction2 = urban_rootfraction_z2_06min.map
maxRootDepth = urban_max_rootdepth_06min.map
arnoBeta = None
interceptStorIni = MAIN_INITIAL_STATE_FOLDER/interceptStor_urban_DATE_FOR_INITIAL_STATES.map
snowCoverSWEIni = MAIN_INITIAL_STATE_FOLDER/snowCoverSWE_urban_DATE_FOR_INITIAL_STATES.map
snowFreeWaterIni = MAIN_INITIAL_STATE_FOLDER/snowFreeWater_urban_DATE_FOR_INITIAL_STATES.map
topWaterLayerIni = MAIN_INITIAL_STATE_FOLDER/topWaterLayer_urban_DATE_FOR_INITIAL_STATES.map
storUppIni = MAIN_INITIAL_STATE_FOLDER/storUpp_urban_DATE_FOR_INITIAL_STATES.map
storLowIni = MAIN_INITIAL_STATE_FOLDER/storLow_urban_DATE_FOR_INITIAL_STATES.map
interflowIni = MAIN_INITIAL_STATE_FOLDER/interflow_urban_DATE_FOR_INITIAL_STATES.map

[cropOptions]
name = crop
debugWaterBalance = True
snowModuleType = Simple
freezingT = 0.0
degreeDayFactor = 0.0025
snowWaterHoldingCap = 0.1
refreezingCoeff = 0.05
minTopWaterLayer = 0.0
minCropKC = 0.2
cropCoefficientNC = crops_cropcoefficient_06min.nc
interceptCapNC = crops_interceptioncapacity_06min.nc
coverFractionNC = crops_groundcover_06min.nc
landCoverMapsNC = None
fracVegCover = fraction_cropland_06arcmin.map
minSoilDepthFrac = crops_min_rootdepth_fraction_06min.map
maxSoilDepthFrac = crops_max_rootdepth_fraction_06min.map
rootFraction1 = crops_rootfraction_z1_06min.map
rootFraction2 = crops_rootfraction_z2_06min.map
maxRootDepth = crops_max_rootdepth_06min.map
arnoBeta = None
interceptStorIni = MAIN_INITIAL_STATE_FOLDER/interceptStor_crop_DATE_FOR_INITIAL_STATES.map
snowCoverSWEIni = MAIN_INITIAL_STATE_FOLDER/snowCoverSWE_crop_DATE_FOR_INITIAL_STATES.map
snowFreeWaterIni = MAIN_INITIAL_STATE_FOLDER/snowFreeWater_crop_DATE_FOR_INITIAL_STATES.map
topWaterLayerIni = MAIN_INITIAL_STATE_FOLDER/topWaterLayer_crop_DATE_FOR_INITIAL_STATES.map
storUppIni = MAIN_INITIAL_STATE_FOLDER/storUpp_crop_DATE_FOR_INITIAL_STATES.map
storLowIni = MAIN_INITIAL_STATE_FOLDER/storLow_crop_DATE_FOR_INITIAL_STATES.map
interflowIni = MAIN_INITIAL_STATE_FOLDER/interflow_crop_DATE_FOR_INITIAL_STATES.map

[groundwaterOptions]
debugWaterBalance = True
groundwaterPropertiesNC = groundwaterProperties5ArcMin.nc
minRecessionCoeff = 0.00025
baseflow_exponent = 1.5
doNotExtrapolateThickness = True
storGroundwaterIni = MAIN_INITIAL_STATE_FOLDER/storGroundwater_DATE_FOR_INITIAL_STATES.map
avgStorGroundwaterIni = MAIN_INITIAL_STATE_FOLDER/avgStorGroundwater_DATE_FOR_INITIAL_STATES.map
storGroundwaterFossilIni = 0.0
avgNonFossilGroundwaterAllocationLongIni = 0.0
avgNonFossilGroundwaterAllocationShortIni = 0.0
avgTotalGroundwaterAbstractionIni = 0.0
avgTotalGroundwaterAllocationLongIni = 0.0
avgTotalGroundwaterAllocationShortIni = 0.0
relativeGroundwaterHeadIni = MAIN_INITIAL_STATE_FOLDER/relativeGroundwaterHead_DATE_FOR_INITIAL_STATES.map
baseflowIni = MAIN_INITIAL_STATE_FOLDER/baseflow_DATE_FOR_INITIAL_STATES.map

[routingOptions]
debugWaterBalance = True
lddMap = lddsound_06min_version_202007XX_for_ulysses.map
cellAreaMap = cellarea.map
routingMethod = accuTravelTime
manningsN = 0.04
dynamicFloodPlain = False
gradient = channel_gradient.map
constantChannelDepth = bankfull_depth.map
constantChannelWidth = bankfull_width.map
minimumChannelWidth = bankfull_width.map
bankfullCapacity = None
cropCoefficientWaterNC = cropCoefficientForOpenWater.nc
minCropWaterKC = 1.00
includeWaterBodies = True
waterBodyInputNC = lakes_and_reservoirs_06min_global_version_july_2020_for_ulysses.nc
onlyNaturalWaterBodies = False
waterBodyStorageIni = MAIN_INITIAL_STATE_FOLDER/waterBodyStorage_DATE_FOR_INITIAL_STATES.map
channelStorageIni = MAIN_INITIAL_STATE_FOLDER/channelStorage_DATE_FOR_INITIAL_STATES.map
readAvlChannelStorageIni = MAIN_INITIAL_STATE_FOLDER/readAvlChannelStorage_DATE_FOR_INITIAL_STATES.map
avgDischargeLongIni = MAIN_INITIAL_STATE_FOLDER/avgDischargeLong_DATE_FOR_INITIAL_STATES.map
avgDischargeShortIni = MAIN_INITIAL_STATE_FOLDER/avgDischargeShort_DATE_FOR_INITIAL_STATES.map
m2tDischargeLongIni = MAIN_INITIAL_STATE_FOLDER/m2tDischargeLong_DATE_FOR_INITIAL_STATES.map
avgBaseflowLongIni = MAIN_INITIAL_STATE_FOLDER/avgBaseflowLong_DATE_FOR_INITIAL_STATES.map
riverbedExchangeIni = MAIN_INITIAL_STATE_FOLDER/riverbedExchange_DATE_FOR_INITIAL_STATES.map
subDischargeIni = MAIN_INITIAL_STATE_FOLDER/subDischarge_DATE_FOR_INITIAL_STATES.map
avgLakeReservoirInflowShortIni = MAIN_INITIAL_STATE_FOLDER/avgLakeReservoirInflowShort_DATE_FOR_INITIAL_STATES.map
avgLakeReservoirOutflowLongIni = MAIN_INITIAL_STATE_FOLDER/avgLakeReservoirOutflowLong_DATE_FOR_INITIAL_STATES.map
timestepsToAvgDischargeIni = MAIN_INITIAL_STATE_FOLDER/timestepsToAvgDischarge_DATE_FOR_INITIAL_STATES.map

[reportingOptions]
landmask_for_reporting = land_mask_only.map
outDailyTotNC = ulyssesP,ulyssesET,ulyssesSWE,ulyssesQsm,ulyssesSM,ulyssesQrRunoff,ulyssesSMUpp,ulyssesSMLow,discharge
outMonthTotNC = None
outMonthAvgNC = None
outMonthEndNC = None
outAnnuaTotNC = None
outAnnuaAvgNC = None
outAnnuaEndNC = None
outMonthMaxNC = None
outAnnuaMaxNC = None
formatNetCDF = NETCDF4
zlib = True
save_monthly_end_states = True

