[globalOptions]

# Set the pcrglobwb output directory in an absolute path.
#~ outputDir = /scratch/depfg/sutan101/test_uly_dummy/
outputDir    = /scratch/ms/copext/cyes/test_uly_dummy/test/

# Set the input directory map in an absolute path. 
# - The input forcing and parameter directories and files will be relative to this.
#~ inputDir = /scratch/depfg/sutan101/data/pcrglobwb2_input_release/version_2019_11_beta_extended/pcrglobwb2_input/
#~ inputDir =  https://opendap.4tu.nl/thredds/dodsC/data2/pcrglobwb/version_2019_11_beta/pcrglobwb2_input/
inputDir    = /scratch/mo/nest/ulysses/data/edwin/pcrglobwb/pcrglobwb2_input/ 

# Map of clone (must be provided in PCRaster maps)
# - Spatial resolution and coverage are based on this map:
#~ cloneMap = /quanta1/home/sutan101/github/edwinkost/PCR-GLOBWB_model_edwin-private-development/various_tools/test_uly/land_mask_only.map
#~ cloneMap = /home/ms/copext/cyes/github/edwinkost/PCR-GLOBWB_model_edwin-private-development/various_tools/test_uly/land_mask_only.map
#~ cloneMap = /home/ms/copext/cyes/github/edwinkost/PCR-GLOBWB_model_edwin-private-development/various_tools/test_uly/landmask_forcing_2020-06-XX/landmask_precipitation_daily_01_01_1981.map
cloneMap    = /home/ms/copext/cyes/links/scratch_ulysses/data/edwin/landmask/clone_mask_basin_1.map
 
# The area/landmask of interest:
# If None, area/landmask is limited for cells with ldd value. 
#~ landmask = /home/ms/copext/cyes/github/edwinkost/PCR-GLOBWB_model_edwin-private-development/various_tools/test_uly/land_mask_only.map
#~ landmask = /home/ms/copext/cyes/github/edwinkost/PCR-GLOBWB_model_edwin-private-development/various_tools/test_uly/landmask_forcing_2020-06-XX/landmask_precipitation_daily_01_01_1981.map
landmask    = /home/ms/copext/cyes/links/scratch_ulysses/data/edwin/landmask/clone_mask_basin_1.map


# netcdf attributes for output files:
institution = Department of Physical Geography, Utrecht University
title       = PCR-GLOBWB 2 output (not coupled to MODFLOW), dummy for Ulysses
description = by Edwin H. Sutanudjaja (contact: e.h.sutanudjaja@uu.nl)


startTime = 1981-01-01
endTime   = 1985-12-31
# Format: YYYY-MM-DD ; The model runs on daily time step.


# spinning up options:
maxSpinUpsInYears = 0
minConvForSoilSto = 0.0
minConvForGwatSto = 0.0
minConvForChanSto = 0.0
minConvForTotlSto = 0.0

# option/directory for saving the spin-up directory 
spinUpOutputDir = True


[meteoOptions]

#~ # Set the forcing temperature and precipitation files (relative to inputDir)
#~ precipitationNC = /home/ms/copext/cyes/github/edwinkost/PCR-GLOBWB_model_edwin-private-development/various_tools/test_uly/era5land_with_snowfall_compress_daily_nc3.nc
#~ temperatureNC   = /home/ms/copext/cyes/github/edwinkost/PCR-GLOBWB_model_edwin-private-development/various_tools/test_uly/era5land_with_snowfall_compress_daily_nc3.nc

# Method to calculate referencePotETP (reference potential evaporation+transpiration)
# options are "Hamon" and "Input" ; If "Input", the netcdf input file must be given:
referenceETPotMethod = Input
#~ refETPotFileNC    = /home/ms/copext/cyes/github/edwinkost/PCR-GLOBWB_model_edwin-private-development/various_tools/test_uly/era5land_with_snowfall_compress_daily_nc3.nc


# for Ulysses
precipitation_file_per_month  = True
temperature_file_per_month    = True
refETPotFileNC_file_per_month = True

#~ precipitationNC    = /scratch/mo/nest/ulysses/data/meteo/era5land/1981/01/precipitation_daily_01_1981.nc
#~ temperatureNC      = /scratch/mo/nest/ulysses/data/meteo/era5land/1981/01/tavg_01_1981.nc
#~ refETPotFileNC     = /scratch/mo/nest/ulysses/data/meteo/era5land/1981/01/pet_01_1981.nc

precipitationNC    = /scratch/mo/nest/ulysses/data/meteo/era5land/%04i/%02i/precipitation_daily_%02i_%04i.nc
temperatureNC      = /scratch/mo/nest/ulysses/data/meteo/era5land/%04i/%02i/tavg_%02i_%04i.nc
refETPotFileNC     = /scratch/mo/nest/ulysses/data/meteo/era5land/%04i/%02i/pet_%02i_%04i.nc


# variable names in the forcing files (optional)
precipitationVariableName    = pre
temperatureVariableName      = tavg
referenceEPotVariableName    = pet

# conversion constants and factors to correct forcing values (optional) so that the units are in m.day-1 and degree Celcius                                                                                                           
precipitationConstant    = 0.0
precipitationFactor      = 0.001
temperatureConstant      = 0.0
temperatureFactor        = 1.0
referenceEPotConstant    = 0.0
referenceEPotFactor      = 0.001



[landSurfaceOptions]
# this is just dummy

debugWaterBalance = True

numberOfUpperSoilLayers = 2

# topography parameters
# - they are used for all land cover types, unless they are are defined in certain land cover type options 
#   (e.g. different/various soil types for agriculture areas)  
topographyNC     = None
#~ # - if topographyNC = None, the following topography parameters will be used
tanslope         = 1.0
slopeLength      = 1.0
orographyBeta    = 1.0
dzRel0001        = 0.0        
dzRel0005        = 0.0
dzRel0010        = 0.0
dzRel0020        = 0.0
dzRel0030        = 0.0
dzRel0040        = 0.0
dzRel0050        = 0.0
dzRel0060        = 0.0
dzRel0070        = 0.0
dzRel0080        = 0.0
dzRel0090        = 0.0
dzRel0100        = 0.0

# soil parameters
# - they are used for all land cover types, unless they are are defined in certain land cover type options 
#   (e.g. different/various soil types for agriculture areas)  
#~ soilPropertiesNC = global_06min_resampled_from_global_05min/landSurface/soil/soilProperties5ArcMin.nc
soilPropertiesNC    = /scratch/mo/nest/ulysses/data/edwin/soilgrids_from_rens_2020-06-23/output/soilgrids_properties_ulysses_6arcmin.nc4
#~ # - if soilPropertiesNC = None, the following soil parameters will be used
#~ firstStorDepth       = 1.0
#~ secondStorDepth      = 1.0
#~ soilWaterStorageCap1 = 1.0
#~ soilWaterStorageCap2 = 1.0
#~ airEntryValue1       = 1.0
#~ airEntryValue2       = 1.0
#~ poreSizeBeta1        = 1.0
#~ poreSizeBeta2        = 1.0
#~ resVolWC1            = 1.0
#~ resVolWC2            = 1.0
#~ satVolWC1            = 1.0
#~ satVolWC2            = 1.0
#~ KSat1                = 1.0
#~ KSat2                = 1.0
#~ percolationImp       = 1.0

# option to skip extrapolation
noParameterExtrapolation = True

# using a dummy land cover
landCoverTypes = tall_natural,short_natural,cropland,urban
noLandCoverFractionCorrection = False


[short_naturalOptions]

name = short_natural
debugWaterBalance = True

# snow module properties
snowModuleType      =  Simple
freezingT           =  0.0
degreeDayFactor     =  0.0025
snowWaterHoldingCap =  0.1
refreezingCoeff     =  0.05

# other paramater values
minTopWaterLayer  = 0.0
minCropKC         = 0.2

cropCoefficientNC = /home/ms/copext/cyes/links/scratch_ulysses/data/edwin/landcover_ulysses_from_rens_2020-07-08/parameters_untar/short_natural_06min/short_natural_cropcoefficient_06min.nc
interceptCapNC    = /home/ms/copext/cyes/links/scratch_ulysses/data/edwin/landcover_ulysses_from_rens_2020-07-08/parameters_untar/short_natural_06min/short_natural_interceptioncapacity_06min.nc
coverFractionNC   = /home/ms/copext/cyes/links/scratch_ulysses/data/edwin/landcover_ulysses_from_rens_2020-07-08/parameters_untar/short_natural_06min/short_natural_groundcover_06min.nc

landCoverMapsNC   = None
# If NC file is not provided, we have to provide the following pcraster maps:
fracVegCover      = /home/ms/copext/cyes/links/scratch_ulysses/data/edwin/landcover_ulysses_from_rens_2020-07-08/source/fraction_short_natural_06arcmin.nc
minSoilDepthFrac  = /home/ms/copext/cyes/links/scratch_ulysses/data/edwin/landcover_ulysses_from_rens_2020-07-08/parameters_untar/short_natural_06min/short_natural_min_rootdepth_fraction_06min.map
maxSoilDepthFrac  = /home/ms/copext/cyes/links/scratch_ulysses/data/edwin/landcover_ulysses_from_rens_2020-07-08/parameters_untar/short_natural_06min/short_natural_max_rootdepth_fraction_06min.map
rootFraction1     = /home/ms/copext/cyes/links/scratch_ulysses/data/edwin/landcover_ulysses_from_rens_2020-07-08/parameters_untar/short_natural_06min/short_natural_rootfraction_z1_06min.map
rootFraction2     = /home/ms/copext/cyes/links/scratch_ulysses/data/edwin/landcover_ulysses_from_rens_2020-07-08/parameters_untar/short_natural_06min/short_natural_rootfraction_z2_06min.map
maxRootDepth      = /home/ms/copext/cyes/links/scratch_ulysses/data/edwin/landcover_ulysses_from_rens_2020-07-08/parameters_untar/short_natural_06min/short_natural_max_rootdepth_06min.map
# Note: The maxRootDepth is not used for non irrigated land cover type. 	
#
# Parameters for the Arno's scheme:
arnoBeta = None
# If arnoBeta is defined, the soil water capacity distribution is based on this.
# If arnoBeta is NOT defined, maxSoilDepthFrac must be defined such that arnoBeta will be calculated based on maxSoilDepthFrac and minSoilDepthFrac.

# initial conditions:
interceptStorIni = 0.0
snowCoverSWEIni  = 0.0
snowFreeWaterIni = 0.0
topWaterLayerIni = 0.0
storUppIni       = 0.0
storLowIni       = 0.0
interflowIni     = 0.0

noParameterExtrapolation = True


[tall_naturalOptions]

name = tall_natural
debugWaterBalance = True

# snow module properties
snowModuleType      =  Simple
freezingT           =  0.0
degreeDayFactor     =  0.0025
snowWaterHoldingCap =  0.1
refreezingCoeff     =  0.05

# other paramater values
minTopWaterLayer  = 0.0
minCropKC         = 0.2

cropCoefficientNC = /home/ms/copext/cyes/links/scratch_ulysses/data/edwin/landcover_ulysses_from_rens_2020-07-08/parameters_untar/tall_natural_06min/tall_natural_cropcoefficient_06min.nc
interceptCapNC    = /home/ms/copext/cyes/links/scratch_ulysses/data/edwin/landcover_ulysses_from_rens_2020-07-08/parameters_untar/tall_natural_06min/tall_natural_interceptioncapacity_06min.nc
coverFractionNC   = /home/ms/copext/cyes/links/scratch_ulysses/data/edwin/landcover_ulysses_from_rens_2020-07-08/parameters_untar/tall_natural_06min/tall_natural_groundcover_06min.nc

landCoverMapsNC   = None
# If NC file is not provided, we have to provide the following pcraster maps:
fracVegCover      = /home/ms/copext/cyes/links/scratch_ulysses/data/edwin/landcover_ulysses_from_rens_2020-07-08/source/fraction_tall_natural_06arcmin.nc
minSoilDepthFrac  = /home/ms/copext/cyes/links/scratch_ulysses/data/edwin/landcover_ulysses_from_rens_2020-07-08/parameters_untar/tall_natural_06min/tall_natural_min_rootdepth_fraction_06min.map
maxSoilDepthFrac  = /home/ms/copext/cyes/links/scratch_ulysses/data/edwin/landcover_ulysses_from_rens_2020-07-08/parameters_untar/tall_natural_06min/tall_natural_max_rootdepth_fraction_06min.map
rootFraction1     = /home/ms/copext/cyes/links/scratch_ulysses/data/edwin/landcover_ulysses_from_rens_2020-07-08/parameters_untar/tall_natural_06min/tall_natural_rootfraction_z1_06min.map
rootFraction2     = /home/ms/copext/cyes/links/scratch_ulysses/data/edwin/landcover_ulysses_from_rens_2020-07-08/parameters_untar/tall_natural_06min/tall_natural_rootfraction_z2_06min.map
maxRootDepth      = /home/ms/copext/cyes/links/scratch_ulysses/data/edwin/landcover_ulysses_from_rens_2020-07-08/parameters_untar/tall_natural_06min/tall_natural_max_rootdepth_06min.map
# Note: The maxRootDepth is not used for non irrigated land cover type. 	
#
# Parameters for the Arno's scheme:
arnoBeta = None
# If arnoBeta is defined, the soil water capacity distribution is based on this.
# If arnoBeta is NOT defined, maxSoilDepthFrac must be defined such that arnoBeta will be calculated based on maxSoilDepthFrac and minSoilDepthFrac.

# initial conditions:
interceptStorIni = 0.0
snowCoverSWEIni  = 0.0
snowFreeWaterIni = 0.0
topWaterLayerIni = 0.0
storUppIni       = 0.0
storLowIni       = 0.0
interflowIni     = 0.0

noParameterExtrapolation = True


[urbanOptions]

name = urban
debugWaterBalance = True

# snow module properties
snowModuleType      =  Simple
freezingT           =  0.0
degreeDayFactor     =  0.0025
snowWaterHoldingCap =  0.1
refreezingCoeff     =  0.05

# other paramater values
minTopWaterLayer  = 0.0
minCropKC         = 0.2

cropCoefficientNC = /home/ms/copext/cyes/links/scratch_ulysses/data/edwin/landcover_ulysses_from_rens_2020-07-08/parameters_untar/urban_06min/urban_cropcoefficient_06min.nc
interceptCapNC    = /home/ms/copext/cyes/links/scratch_ulysses/data/edwin/landcover_ulysses_from_rens_2020-07-08/parameters_untar/urban_06min/urban_interceptioncapacity_06min.nc
coverFractionNC   = /home/ms/copext/cyes/links/scratch_ulysses/data/edwin/landcover_ulysses_from_rens_2020-07-08/parameters_untar/urban_06min/urban_groundcover_06min.nc

landCoverMapsNC   = None
# If NC file is not provided, we have to provide the following pcraster maps:
fracVegCover      = /home/ms/copext/cyes/links/scratch_ulysses/data/edwin/landcover_ulysses_from_rens_2020-07-08/source/fraction_urban_06arcmin.nc
minSoilDepthFrac  = /home/ms/copext/cyes/links/scratch_ulysses/data/edwin/landcover_ulysses_from_rens_2020-07-08/parameters_untar/urban_06min/urban_min_rootdepth_fraction_06min.map
maxSoilDepthFrac  = /home/ms/copext/cyes/links/scratch_ulysses/data/edwin/landcover_ulysses_from_rens_2020-07-08/parameters_untar/urban_06min/urban_max_rootdepth_fraction_06min.map
rootFraction1     = /home/ms/copext/cyes/links/scratch_ulysses/data/edwin/landcover_ulysses_from_rens_2020-07-08/parameters_untar/urban_06min/urban_rootfraction_z1_06min.map
rootFraction2     = /home/ms/copext/cyes/links/scratch_ulysses/data/edwin/landcover_ulysses_from_rens_2020-07-08/parameters_untar/urban_06min/urban_rootfraction_z2_06min.map
maxRootDepth      = /home/ms/copext/cyes/links/scratch_ulysses/data/edwin/landcover_ulysses_from_rens_2020-07-08/parameters_untar/urban_06min/urban_max_rootdepth_06min.map
# Note: The maxRootDepth is not used for non irrigated land cover type. 	
#
# Parameters for the Arno's scheme:
arnoBeta = None
# If arnoBeta is defined, the soil water capacity distribution is based on this.
# If arnoBeta is NOT defined, maxSoilDepthFrac must be defined such that arnoBeta will be calculated based on maxSoilDepthFrac and minSoilDepthFrac.

# initial conditions:
interceptStorIni = 0.0
snowCoverSWEIni  = 0.0
snowFreeWaterIni = 0.0
topWaterLayerIni = 0.0
storUppIni       = 0.0
storLowIni       = 0.0
interflowIni     = 0.0

noParameterExtrapolation = True


[croplandOptions]

name = cropland
debugWaterBalance = True

# snow module properties
snowModuleType      =  Simple
freezingT           =  0.0
degreeDayFactor     =  0.0025
snowWaterHoldingCap =  0.1
refreezingCoeff     =  0.05

# other paramater values
minTopWaterLayer  = 0.0
minCropKC         = 0.2

cropCoefficientNC = /home/ms/copext/cyes/links/scratch_ulysses/data/edwin/landcover_ulysses_from_rens_2020-07-08/parameters_untar/cropland_06min/cropland_cropcoefficient_06min.nc
interceptCapNC    = /home/ms/copext/cyes/links/scratch_ulysses/data/edwin/landcover_ulysses_from_rens_2020-07-08/parameters_untar/cropland_06min/cropland_interceptioncapacity_06min.nc
coverFractionNC   = /home/ms/copext/cyes/links/scratch_ulysses/data/edwin/landcover_ulysses_from_rens_2020-07-08/parameters_untar/cropland_06min/cropland_groundcover_06min.nc

landCoverMapsNC   = None
# If NC file is not provided, we have to provide the following pcraster maps:
fracVegCover      = /home/ms/copext/cyes/links/scratch_ulysses/data/edwin/landcover_ulysses_from_rens_2020-07-08/source/fraction_cropland_06arcmin.nc
minSoilDepthFrac  = /home/ms/copext/cyes/links/scratch_ulysses/data/edwin/landcover_ulysses_from_rens_2020-07-08/parameters_untar/cropland_06min/cropland_min_rootdepth_fraction_06min.map
maxSoilDepthFrac  = /home/ms/copext/cyes/links/scratch_ulysses/data/edwin/landcover_ulysses_from_rens_2020-07-08/parameters_untar/cropland_06min/cropland_max_rootdepth_fraction_06min.map
rootFraction1     = /home/ms/copext/cyes/links/scratch_ulysses/data/edwin/landcover_ulysses_from_rens_2020-07-08/parameters_untar/cropland_06min/cropland_rootfraction_z1_06min.map
rootFraction2     = /home/ms/copext/cyes/links/scratch_ulysses/data/edwin/landcover_ulysses_from_rens_2020-07-08/parameters_untar/cropland_06min/cropland_rootfraction_z2_06min.map
maxRootDepth      = /home/ms/copext/cyes/links/scratch_ulysses/data/edwin/landcover_ulysses_from_rens_2020-07-08/parameters_untar/cropland_06min/cropland_max_rootdepth_06min.map
# Note: The maxRootDepth is not used for non irrigated land cover type. 	
#
# Parameters for the Arno's scheme:
arnoBeta = None
# If arnoBeta is defined, the soil water capacity distribution is based on this.
# If arnoBeta is NOT defined, maxSoilDepthFrac must be defined such that arnoBeta will be calculated based on maxSoilDepthFrac and minSoilDepthFrac.

# initial conditions:
interceptStorIni = 0.0
snowCoverSWEIni  = 0.0
snowFreeWaterIni = 0.0
topWaterLayerIni = 0.0
storUppIni       = 0.0
storLowIni       = 0.0
interflowIni     = 0.0

noParameterExtrapolation = True


[groundwaterOptions]
# this is STILL dummy

debugWaterBalance = True

groundwaterPropertiesNC = /home/ms/copext/cyes/links/scratch_ulysses/data/edwin/pcrglobwb/pcrglobwb2_input/global_06min_resampled_from_global_05min/groundwater/properties/groundwaterProperties5ArcMin.nc
# The file will containspecificYield (m3.m-3), kSatAquifer, recessionCoeff (day-1)
#
#~ specificYield  = None
#~ recessionCoeff = None
#~ kSatAquifer    = None
#
# - minimum value for groundwater recession coefficient (day-1) 
minRecessionCoeff = 1.0e-4

doNotExtrapolateThickness = True
noParameterExtrapolation  = True

# initial conditions:
storGroundwaterIni                        = 0.0
storGroundwaterFossilIni                  = 0.0
#
# additional initial conditions for pumping behaviors
avgNonFossilGroundwaterAllocationLongIni  = 0.0
avgNonFossilGroundwaterAllocationShortIni = 0.0
avgTotalGroundwaterAbstractionIni         = 0.0
avgTotalGroundwaterAllocationLongIni      = 0.0
avgTotalGroundwaterAllocationShortIni     = 0.0
#
# additional initial conditions (needed only for MODFLOW run) 
relativeGroundwaterHeadIni                = 0.0
baseflowIni                               = 0.0


[routingOptions]
# this is STILL dummy

debugWaterBalance = True

# drainage direction map
lddMap      = 5.0

# cell area (unit: m2)
cellAreaMap = 1.0

# routing method:
routingMethod = accuTravelTime

# manning coefficient
manningsN   = 0.04

# Option for flood plain simulation
dynamicFloodPlain = False


# channel gradient
gradient             = 1.0

# constant channel depth 
constantChannelDepth = 1.0

# constant channel width (optional)
constantChannelWidth = 1.0

# minimum channel width (optional)
minimumChannelWidth  = 1.0

# channel properties for flooding
bankfullCapacity     = None
# - If None, it will be estimated from (bankfull) channel depth (m) and width (m) 


# composite crop factors for WaterBodies: 
cropCoefficientWaterNC = None
minCropWaterKC         = 1.00


# lake and reservoir parameters
includeWaterBodies     = False
waterBodyInputNC       = None
fracWaterInp           = None
waterBodyIds           = None
waterBodyTyp           = None
resMaxCapInp           = None
resSfAreaInp           = None
onlyNaturalWaterBodies = False


# initial conditions:
waterBodyStorageIni            = 0.0
channelStorageIni              = 0.0
readAvlChannelStorageIni       = 0.0
avgDischargeLongIni            = 0.0
avgDischargeShortIni           = 0.0
m2tDischargeLongIni            = 0.0
avgBaseflowLongIni             = 0.0
riverbedExchangeIni            = 0.0
#
# initial condition of sub-time step discharge (needed for estimating number of time steps in kinematic wave methods)
subDischargeIni                = 0.0
#
avgLakeReservoirInflowShortIni = 0.0
avgLakeReservoirOutflowLongIni = 0.0
#
# number of days (timesteps) that have been performed for spinning up initial conditions in the routing module (i.e. channelStorageIni, avgDischargeLongIni, avgDischargeShortIni, etc.)
timestepsToAvgDischargeIni     = 0.0
# Note that: 
# - maximum number of days (timesteps) to calculate long term average flow values (default: 5 years = 5 * 365 days = 1825)
# - maximum number of days (timesteps) to calculate short term average values (default: 1 month = 1 * 30 days = 30)



[reportingOptions]

# output files that will be written in the disk in netcdf files:
# - daily resolution
outDailyTotNC = temperature,precipitation,referencePotET,totalEvaporation,totalRunoff
# - monthly resolution
outMonthTotNC = precipitation,referencePotET,totalEvaporation,totalRunoff
outMonthAvgNC = temperature
outMonthEndNC = None
# - annual resolution
outAnnuaTotNC = None
outAnnuaAvgNC = None
# - monthly and annual maxima
outMonthMaxNC = None
outAnnuaMaxNC = None

#~ # netcdf format and zlib setup
#~ formatNetCDF = NETCDF4
#~ zlib = True



