[globalOptions]

# Set the pcrglobwb output directory in an absolute path.
outputDir    = /projects/0/dfguu2/scratch/edwinhs/pcrglobwb2_output_05min_deltares_subsidence/non-natural_glowasis_demand_true_run_test/begin_from_1958/california_etc/

# Set the input directory map in an absolute path. 
# - The input forcing and parameter directories and files will be relative to this.
inputDir     = /projects/0/dfguu/data/hydroworld/pcrglobwb2_input_release/develop/pcrglobwb2_input/

# the following is needed for a parallel run
#~ cloneAreas    = Global
#
# PART ONE
cloneAreas    = part_one
#~ # PART TWO
#~ cloneAreas = part_two

# Map of clone (must be provided in PCRaster maps)
# - Spatial resolution and coverage are based on this map:
#~ cloneMap = global_05min/cloneMaps/global_parallelization/clone_%3s.map
cloneMap    = global_05min/cloneMaps/global_parallelization/clone_M40.map
#~ cloneMap = global_05min/cloneMaps/global_parallelization/clone_M13.map
#~ cloneMap = global_05min/cloneMaps/global_parallelization/clone_M17.map
#~ cloneMap = global_05min/cloneMaps/global_parallelization/clone_M11.map
#~ cloneMap = global_05min/routing/ldd_and_cell_area/lddsound_05min.map
#~ cloneMap = /projects/0/dfguu/data/hydroworld/others/Java/Java05min.clone.map
#~ cloneMap = /projects/0/dfguu/users/edwinhs/data/mekong_etc_clone/version_2018-09-21/clone_mekong_etc.map
#~ cloneMap = /projects/0/dfguu/data/hydroworld/others/Mississippi/Mississippi05min.clone.map

# The area/landmask of interest:
# If None, area/landmask is limited for cells with ldd value. 
#~ landmask = global_05min/cloneMaps/global_parallelization/mask_%3s.map
landmask    = None

# netcdf attributes for output files:
institution  = Department of Physical Geography, Utrecht University
title        = PCR-GLOBWB 2 output (not coupled to MODFLOW) - run with human influence
description  = by Edwin H. Sutanudjaja (contact: e.h.sutanudjaja@uu.nl) for Deltares land subsidence model

startTime = 1958-01-01
endTime   = 2010-12-31
# Format: YYYY-MM-DD ; The current model runs on the daily time step.

# spinning up options:
maxSpinUpsInYears = 0
minConvForSoilSto = 0.0
minConvForGwatSto = 0.0
minConvForChanSto = 0.0
minConvForTotlSto = 0.0

#~ # option/directory for saving the spin-up directory 
#~ spinUpOutputDir = True

# an optional option to include the merging process (needed for parallel runs with/without modflow) 
# - for parallel runs with spin-ups, we should set this to False
#~ with_merging = False
with_merging    = True

[globalMergingAndModflowOptions]

# the global clone map
cloneMap = global_05min/routing/ldd_and_cell_area/lddsound_05min.map

# The area/landmask of interest:
landmask = None
# If None, area/landmask is limited for cells with ldd value. 

# option to indicate if an online coupling between PCR-GLOBWB and MODFLOW models used
online_coupling_between_pcrglobwb_and_modflow = False



[prefactorOptions]

linear_multiplier_for_refPotET         = 1.0
linear_multiplier_for_degreeDayFactor  = 1.0
linear_multiplier_for_minSoilDepthFrac = 1.0
log_10_multiplier_for_kSat             = 0.0
linear_multiplier_for_storCap          = 1.0
log_10_multiplier_for_recessionCoeff   = 0.0



[meteoOptions]

# Set the forcing temperature and precipitation files (relative to inputDir)
precipitationNC = /projects/0/dfguu/data/hydroworld/forcing/ERA20C/CRU-TS3.23_ERA20C_daily_precipitation_1901_to_2010.nc
temperatureNC   = /projects/0/dfguu/data/hydroworld/forcing/ERA20C/CRU-TS3.23_ERA20C_daily_temperature_1901_to_2010.nc

# Method to calculate referencePotETP (reference potential evaporation+transpiration)
# options are "Hamon" and "Input" ; If "Input", the netcdf input file must be given:
referenceETPotMethod = Input
refETPotFileNC  = /projects/0/dfguu/data/hydroworld/forcing/ERA20C/CRU-TS3.23_ERA20C_daily_referencePotET_1901_to_2010.nc



[meteoDownscalingOptions]
# This section is for a 5 arcmin run, for downscaling meteorological forcing at 30 arcmin to 5 arcmin.  
                                                                                                                                        
downscalePrecipitation  = False                                                                                                                                   
downscaleTemperature    = True                                                                                                                                   
downscaleReferenceETPot = False                                                                                                                                   
   
# downscaling (based on the digital elevation model):                                                                                                            
# The downscaling will be performed by providing the "cellIds" (meteoDownscaleIds) of lower resolution cells.                                                    
meteoDownscaleIds = global_05min/meteo/downscaling_from_30min/uniqueIds_30min.map                                                                      
highResolutionDEM = global_05min/meteo/downscaling_from_30min/gtopo05min.map                                                                           
   
# lapse rates:                                                                                                                                                   
temperLapseRateNC = global_05min/meteo/downscaling_from_30min/temperature_slope.nc                                                                     
precipLapseRateNC = global_05min/meteo/downscaling_from_30min/precipitation_slope.nc                                                                   
                                                                                                                                                                 
# downscaling criteria (TODO: remove these):                                                                                                                     
temperatCorrelNC  = global_05min/meteo/downscaling_from_30min/temperature_correl.nc                                                                     
precipitCorrelNC  = global_05min/meteo/downscaling_from_30min/precipitation_correl.nc                                                                   
                                                                                                                                                                 
# windows length (unit: arc-degree) for smoothing/averaging forcing data (not recommended):                                                                      
smoothingWindowsLength = 0




[landSurfaceOptions]
debugWaterBalance = True

numberOfUpperSoilLayers = 2

# soil and parameters
# - they are used for all land cover types, unless they are are defined in certain land cover type options 
#   (e.g. different/various soil types for agriculture areas)  
topographyNC        = global_05min/landSurface/topography/topography_parameters_5_arcmin_october_2015.nc
#~ soilPropertiesNC = global_05min/landSurface/soil/soilProperties5ArcMin.nc
soilPropertiesNC    = /projects/0/dfguu/users/rens/data/GLO/Soil/soilProperties_SSP2_2050_withCFL_for_PedonTransfer_Natural_5arcmin.nc
# I decide to use the above soil properties so that the historical and future/climate runs are consistent. 

# if the following is True, there will be annual changes in the land cover parameters 
# (i.e. fracVegCover, rootFraction1, rootFraction2 and maxRootDepth, as well as arnoBeta, minSoilDepthFrac and maxSoilDepthFrac) 
# that have to defined in the options of each land cover in netcdf files
annualChangesInLandCoverParameters = True

landCoverTypes = urban,forest,grassland,pasture,rainfedCrops,irrPaddy,irrNonPaddy

# - if the following is False, the scripts will make sure that the sum of all land cover fraction is equal to one.   
noLandCoverFractionCorrection = True
# TODO: Still NOT working if False.

includeIrrigation = True

includeDomesticWaterDemand  = True
includeIndustryWaterDemand  = True
includeLivestockWaterDemand = True

# domestic, industrial and livestock water demand data (unit must be in m.day-1)
# - water demand as defined in the GLOWASIS
domesticWaterDemandFile  = /projects/0/dfguu/users/edwin/data/data_from_yoshi/GLOWASIS_water_demand/05min/remapbil/domestic_water_demand_5min_meter_per_day_date_fixed.nc
industryWaterDemandFile  = /projects/0/dfguu/users/edwin/data/data_from_yoshi/GLOWASIS_water_demand/05min/remapbil/industry_water_demand_5min_meter_per_day_date_fixed.nc
livestockWaterDemandFile = /projects/0/dfguu/users/edwin/data/data_from_yoshi/GLOWASIS_water_demand/05min/remapbil/livestock_water_demand_5min_meter_per_day_date_fixed.nc
#~ # - water demand as used in the GMD paper
#~ domesticWaterDemandFile  = global_05min/waterUse/waterDemand/domestic/domestic_water_demand_version_april_2015.nc
#~ industryWaterDemandFile  = global_05min/waterUse/waterDemand/industry/industry_water_demand_version_april_2015.nc
#~ livestockWaterDemandFile = global_05min/waterUse/waterDemand/livestock/livestock_water_demand_version_april_2015.nc


# desalination water supply (maximum/potential/capacity)
desalinationWater = global_05min/waterUse/desalination/desalination_water_version_april_2015.nc


# zone IDs (scale) at which allocations of groundwater and surface water (as well as desalinated water) are performed  
allocationSegmentsForGroundSurfaceWater = global_05min/waterUse/abstraction_zones/abstraction_zones_60min_05min.map

# pcraster maps defining the partitioning of groundwater - surface water source 
#
# - predefined surface water - groundwater partitioning for irrigation demand (e.g. based on Siebert, Global Map of Irrigation Areas version 5)
irrigationSurfaceWaterAbstractionFractionData           = global_05min/waterUse/source_partitioning/surface_water_fraction_for_irrigation/AEI_SWFRAC.map
# -- quality map
irrigationSurfaceWaterAbstractionFractionDataQuality    = global_05min/waterUse/source_partitioning/surface_water_fraction_for_irrigation/AEI_QUAL.map
#
# - threshold values defining the preference for surface water source for irrigation purpose
# -- treshold to maximize surface water irrigation use (cells with irrSurfaceWaterAbstractionFraction above this will prioritize irrigation surface water use)
treshold_to_maximize_irrigation_surface_water           = 0.50
# -- treshold to minimize fossil water withdrawal for irrigation (cells with irrSurfaceWaterAbstractionFraction below this have no fossil withdrawal for irrigation)
treshold_to_minimize_fossil_groundwater_irrigation      = 0.70
#
# - predefined surface water - groundwater partitioning for non irrigation demand
maximumNonIrrigationSurfaceWaterAbstractionFractionData    = 1.0
#~ maximumNonIrrigationSurfaceWaterAbstractionFractionData = global_30min/waterUse/source_partitioning/surface_water_fraction_for_non_irrigation/max_city_sw_fraction.map
predefinedNonIrrigationSurfaceWaterAbstractionFractionData = /projects/0/dfguu/users/edwinhs/data/updating_mcdonald_table_version_2018-08-XX/05min/non_irr_sws_fraction.map


[urbanOptions]

name = urban
debugWaterBalance = True

# soil and parameters (specifically) for this land cover type
usingSpecificSoilTopo = True
topographyNC      = global_05min/landSurface/topography/topography_parameters_5_arcmin_october_2015.nc
soilPropertiesNC  = /projects/0/dfguu/users/rens/data/GLO/Soil/soilProperties_SSP2_2050_withCFL_for_PedonTransfer_Agriculture_5arcmin.nc
# I decide to use the above soil properties so that the historical and future/climate runs are consistent. 

# snow module properties
snowModuleType      =  Simple
freezingT           =  0.0
degreeDayFactor     =  0.0025
snowWaterHoldingCap =  0.1
refreezingCoeff     =  0.05

# other paramater values
minTopWaterLayer = 0.0
minCropKC        = 0.2

# Parameters for the Arno's scheme:
arnoBeta = None
# If arnoBeta is defined, the soil water capacity distribution is based on this.
# If arnoBeta is NOT defined, maxSoilDepthFrac must be defined such that arnoBeta will be calculated based on maxSoilDepthFrac and minSoilDepthFrac.

fracVegCoverNC     = /projects/0/dfguu/users/rens/data/GLO/Vegetation/Reference/fraction_urban_historical_1970-2010.nc
minSoilDepthFracNC = /projects/0/dfguu/users/rens/data/GLO/Vegetation/SSP2/Properties/urban_min_rootdepth_fraction.map
maxSoilDepthFracNC = /projects/0/dfguu/users/rens/data/GLO/Vegetation/SSP2/Properties/urban_max_rootdepth_fraction.map
rootFraction1NC    = /projects/0/dfguu/users/rens/data/GLO/Vegetation/SSP2/Properties/urban_rootfraction_z1.map
rootFraction2NC    = /projects/0/dfguu/users/rens/data/GLO/Vegetation/SSP2/Properties/urban_rootfraction_z2.map
maxRootDepthNC     = /projects/0/dfguu/users/rens/data/GLO/Vegetation/SSP2/Properties/urban_max_rootdepth.map
arnoBetaNC         = None

cropCoefficientNC = /projects/0/dfguu/users/rens/data/GLO/Vegetation/SSP2/Properties/urban_cropcoefficient.nc
interceptCapNC    = /projects/0/dfguu/users/rens/data/GLO/Vegetation/SSP2/Properties/urban_interceptioncapacity.nc
coverFractionNC   = /projects/0/dfguu/users/rens/data/GLO/Vegetation/SSP2/Properties/urban_groundcover.nc

# initial conditions:
interceptStorIni = /projects/0/dfguu2/scratch/edwinhs/pcrglobwb2_output_05min_deltares_subsidence/non-natural_glowasis_demand_spinup_extra/only_1958/global/states/interceptStor_urban_1958-12-31.map
snowCoverSWEIni  = /projects/0/dfguu2/scratch/edwinhs/pcrglobwb2_output_05min_deltares_subsidence/non-natural_glowasis_demand_spinup_extra/only_1958/global/states/snowCoverSWE_urban_1958-12-31.map
snowFreeWaterIni = /projects/0/dfguu2/scratch/edwinhs/pcrglobwb2_output_05min_deltares_subsidence/non-natural_glowasis_demand_spinup_extra/only_1958/global/states/snowFreeWater_urban_1958-12-31.map
topWaterLayerIni = /projects/0/dfguu2/scratch/edwinhs/pcrglobwb2_output_05min_deltares_subsidence/non-natural_glowasis_demand_spinup_extra/only_1958/global/states/topWaterLayer_urban_1958-12-31.map
storUppIni       = /projects/0/dfguu2/scratch/edwinhs/pcrglobwb2_output_05min_deltares_subsidence/non-natural_glowasis_demand_spinup_extra/only_1958/global/states/storUpp_urban_1958-12-31.map
storLowIni       = /projects/0/dfguu2/scratch/edwinhs/pcrglobwb2_output_05min_deltares_subsidence/non-natural_glowasis_demand_spinup_extra/only_1958/global/states/storLow_urban_1958-12-31.map
interflowIni     = /projects/0/dfguu2/scratch/edwinhs/pcrglobwb2_output_05min_deltares_subsidence/non-natural_glowasis_demand_spinup_extra/only_1958/global/states/interflow_urban_1958-12-31.map



[forestOptions]

name = forest
debugWaterBalance = True

# soil and parameters (specifically) for this land cover type
usingSpecificSoilTopo = True
topographyNC      = global_05min/landSurface/topography/topography_parameters_5_arcmin_october_2015.nc
soilPropertiesNC  = /projects/0/dfguu/users/rens/data/GLO/Soil/soilProperties_SSP2_2050_withCFL_for_PedonTransfer_Natural_5arcmin.nc
# I decide to use the above soil properties so that the historical and future/climate runs are consistent. 

# snow module properties
snowModuleType      =  Simple
freezingT           =  0.0
degreeDayFactor     =  0.0025
snowWaterHoldingCap =  0.1
refreezingCoeff     =  0.05

# other paramater values
minTopWaterLayer  = 0.0
minCropKC         = 0.2

cropCoefficientNC = global_05min/landSurface/landCover/naturalTall/cropCoefficientForest.nc
interceptCapNC    = global_05min/landSurface/landCover/naturalTall/interceptCapInputForest.nc
coverFractionNC   = global_05min/landSurface/landCover/naturalTall/coverFractionInputForest.nc

fracVegCoverNC     = /projects/0/dfguu/users/rens/data/GLO/Vegetation/Reference/fraction_forest_historical_1970-2010.nc
minSoilDepthFracNC = /projects/0/dfguu/data/hydroworld/PCRGLOBWB20/input5min/landCover/forest/minf_tall.map 
maxSoilDepthFracNC = /projects/0/dfguu/data/hydroworld/PCRGLOBWB20/input5min/landCover/forest/maxf_tall.map
rootFraction1NC    = /projects/0/dfguu/data/hydroworld/PCRGLOBWB20/input5min/landCover/forest/rfrac1_tall.map
rootFraction2NC    = /projects/0/dfguu/data/hydroworld/PCRGLOBWB20/input5min/landCover/forest/rfrac2_tall.map
maxRootDepthNC     = /projects/0/dfguu/data/hydroworld/PCRGLOBWB20/input5min/landCover/forest/meanrootdepth_tall.map
arnoBetaNC         = None
# Note: The maxRootDepth is not used for non irrigated land cover type. 	

# initial conditions:
interceptStorIni = /projects/0/dfguu2/scratch/edwinhs/pcrglobwb2_output_05min_deltares_subsidence/non-natural_glowasis_demand_spinup_extra/only_1958/global/states/interceptStor_forest_1958-12-31.map
snowCoverSWEIni  = /projects/0/dfguu2/scratch/edwinhs/pcrglobwb2_output_05min_deltares_subsidence/non-natural_glowasis_demand_spinup_extra/only_1958/global/states/snowCoverSWE_forest_1958-12-31.map
snowFreeWaterIni = /projects/0/dfguu2/scratch/edwinhs/pcrglobwb2_output_05min_deltares_subsidence/non-natural_glowasis_demand_spinup_extra/only_1958/global/states/snowFreeWater_forest_1958-12-31.map
topWaterLayerIni = /projects/0/dfguu2/scratch/edwinhs/pcrglobwb2_output_05min_deltares_subsidence/non-natural_glowasis_demand_spinup_extra/only_1958/global/states/topWaterLayer_forest_1958-12-31.map
storUppIni       = /projects/0/dfguu2/scratch/edwinhs/pcrglobwb2_output_05min_deltares_subsidence/non-natural_glowasis_demand_spinup_extra/only_1958/global/states/storUpp_forest_1958-12-31.map
storLowIni       = /projects/0/dfguu2/scratch/edwinhs/pcrglobwb2_output_05min_deltares_subsidence/non-natural_glowasis_demand_spinup_extra/only_1958/global/states/storLow_forest_1958-12-31.map
interflowIni     = /projects/0/dfguu2/scratch/edwinhs/pcrglobwb2_output_05min_deltares_subsidence/non-natural_glowasis_demand_spinup_extra/only_1958/global/states/interflow_forest_1958-12-31.map



[grasslandOptions]

name = grassland
debugWaterBalance = True

# soil and parameters (specifically) for this land cover type
usingSpecificSoilTopo = True
topographyNC      = global_05min/landSurface/topography/topography_parameters_5_arcmin_october_2015.nc
soilPropertiesNC  = /projects/0/dfguu/users/rens/data/GLO/Soil/soilProperties_SSP2_2050_withCFL_for_PedonTransfer_Natural_5arcmin.nc
# I decide to use the above soil properties so that the historical and future/climate runs are consistent. 

# snow module properties
snowModuleType      =  Simple
freezingT           =  0.0
degreeDayFactor     =  0.0025
snowWaterHoldingCap =  0.1
refreezingCoeff     =  0.05

# other paramater values
minTopWaterLayer = 0.0
minCropKC        = 0.2

cropCoefficientNC = global_05min/landSurface/landCover/naturalShort/cropCoefficientGrassland.nc
interceptCapNC    = global_05min/landSurface/landCover/naturalShort/interceptCapInputGrassland.nc
coverFractionNC   = global_05min/landSurface/landCover/naturalShort/coverFractionInputGrassland.nc

fracVegCoverNC     = /projects/0/dfguu/users/rens/data/GLO/Vegetation/Reference/fraction_grassland_historical_1970-2010.nc
minSoilDepthFracNC = /projects/0/dfguu/data/hydroworld/PCRGLOBWB20/input5min/landCover/grassland/minf_short.map 
maxSoilDepthFracNC = /projects/0/dfguu/data/hydroworld/PCRGLOBWB20/input5min/landCover/grassland/maxf_short.map
rootFraction1NC    = /projects/0/dfguu/data/hydroworld/PCRGLOBWB20/input5min/landCover/grassland/rfrac1_short.map
rootFraction2NC    = /projects/0/dfguu/data/hydroworld/PCRGLOBWB20/input5min/landCover/grassland/rfrac2_short.map
maxRootDepthNC     = /projects/0/dfguu/data/hydroworld/PCRGLOBWB20/input5min/landCover/grassland/meanrootdepth_short.map
arnoBetaNC         = None
# Note: The maxRootDepth is not used for non irrigated land cover type. 	

# initial conditions:
interceptStorIni = /projects/0/dfguu2/scratch/edwinhs/pcrglobwb2_output_05min_deltares_subsidence/non-natural_glowasis_demand_spinup_extra/only_1958/global/states/interceptStor_grassland_1958-12-31.map
snowCoverSWEIni  = /projects/0/dfguu2/scratch/edwinhs/pcrglobwb2_output_05min_deltares_subsidence/non-natural_glowasis_demand_spinup_extra/only_1958/global/states/snowCoverSWE_grassland_1958-12-31.map
snowFreeWaterIni = /projects/0/dfguu2/scratch/edwinhs/pcrglobwb2_output_05min_deltares_subsidence/non-natural_glowasis_demand_spinup_extra/only_1958/global/states/snowFreeWater_grassland_1958-12-31.map
topWaterLayerIni = /projects/0/dfguu2/scratch/edwinhs/pcrglobwb2_output_05min_deltares_subsidence/non-natural_glowasis_demand_spinup_extra/only_1958/global/states/topWaterLayer_grassland_1958-12-31.map
storUppIni       = /projects/0/dfguu2/scratch/edwinhs/pcrglobwb2_output_05min_deltares_subsidence/non-natural_glowasis_demand_spinup_extra/only_1958/global/states/storUpp_grassland_1958-12-31.map
storLowIni       = /projects/0/dfguu2/scratch/edwinhs/pcrglobwb2_output_05min_deltares_subsidence/non-natural_glowasis_demand_spinup_extra/only_1958/global/states/storLow_grassland_1958-12-31.map
interflowIni     = /projects/0/dfguu2/scratch/edwinhs/pcrglobwb2_output_05min_deltares_subsidence/non-natural_glowasis_demand_spinup_extra/only_1958/global/states/interflow_grassland_1958-12-31.map



[pastureOptions]

name = pasture
debugWaterBalance = True

# soil and parameters (specifically) for this land cover type
usingSpecificSoilTopo = True
topographyNC      = global_05min/landSurface/topography/topography_parameters_5_arcmin_october_2015.nc
soilPropertiesNC  = /projects/0/dfguu/users/rens/data/GLO/Soil/soilProperties_SSP2_2050_withCFL_for_PedonTransfer_Agriculture_5arcmin.nc
# I decide to use the above soil properties so that the historical and future/climate runs are consistent. 

# snow module properties
snowModuleType      =  Simple
freezingT           =  0.0
degreeDayFactor     =  0.0025
snowWaterHoldingCap =  0.1
refreezingCoeff     =  0.05

# other paramater values
minTopWaterLayer = 0.0
minCropKC        = 0.2

# Parameters for the Arno's scheme:
arnoBeta = None
# If arnoBeta is defined, the soil water capacity distribution is based on this.
# If arnoBeta is NOT defined, maxSoilDepthFrac must be defined such that arnoBeta will be calculated based on maxSoilDepthFrac and minSoilDepthFrac.

fracVegCoverNC     = /projects/0/dfguu/users/rens/data/GLO/Vegetation/Reference/fraction_pasture_historical_1970-2010.nc
minSoilDepthFracNC = /projects/0/dfguu/users/rens/data/GLO/Vegetation/SSP2/Properties/pasture_minSoilDepthFrac.map 
maxSoilDepthFracNC = /projects/0/dfguu/users/rens/data/GLO/Vegetation/SSP2/Properties/pasture_maxSoilDepthFrac.map
rootFraction1NC    = /projects/0/dfguu/users/rens/data/GLO/Vegetation/SSP2/Properties/pasture_rootfraction_z1.map
rootFraction2NC    = /projects/0/dfguu/users/rens/data/GLO/Vegetation/SSP2/Properties/pasture_rootfraction_z2.map
maxRootDepthNC     = /projects/0/dfguu/users/rens/data/GLO/Vegetation/SSP2/Properties/pasture_maxSoilDepth.map
arnoBetaNC         = None
# Note: The maxRootDepth is not used for non irrigated land cover type. 	

cropCoefficientNC = /projects/0/dfguu/users/rens/data/GLO/Vegetation/SSP2/Properties/pasture_cropfactor.nc
interceptCapNC    = /projects/0/dfguu/users/rens/data/GLO/Vegetation/SSP2/Properties/pasture_interceptionstorage.nc
coverFractionNC   = /projects/0/dfguu/users/rens/data/GLO/Vegetation/SSP2/Properties/pasture_groundcover.nc

# initial conditions:
interceptStorIni = /projects/0/dfguu2/scratch/edwinhs/pcrglobwb2_output_05min_deltares_subsidence/non-natural_glowasis_demand_spinup_extra/only_1958/global/states/interceptStor_pasture_1958-12-31.map
snowCoverSWEIni  = /projects/0/dfguu2/scratch/edwinhs/pcrglobwb2_output_05min_deltares_subsidence/non-natural_glowasis_demand_spinup_extra/only_1958/global/states/snowCoverSWE_pasture_1958-12-31.map
snowFreeWaterIni = /projects/0/dfguu2/scratch/edwinhs/pcrglobwb2_output_05min_deltares_subsidence/non-natural_glowasis_demand_spinup_extra/only_1958/global/states/snowFreeWater_pasture_1958-12-31.map
topWaterLayerIni = /projects/0/dfguu2/scratch/edwinhs/pcrglobwb2_output_05min_deltares_subsidence/non-natural_glowasis_demand_spinup_extra/only_1958/global/states/topWaterLayer_pasture_1958-12-31.map
storUppIni       = /projects/0/dfguu2/scratch/edwinhs/pcrglobwb2_output_05min_deltares_subsidence/non-natural_glowasis_demand_spinup_extra/only_1958/global/states/storUpp_pasture_1958-12-31.map
storLowIni       = /projects/0/dfguu2/scratch/edwinhs/pcrglobwb2_output_05min_deltares_subsidence/non-natural_glowasis_demand_spinup_extra/only_1958/global/states/storLow_pasture_1958-12-31.map
interflowIni     = /projects/0/dfguu2/scratch/edwinhs/pcrglobwb2_output_05min_deltares_subsidence/non-natural_glowasis_demand_spinup_extra/only_1958/global/states/interflow_pasture_1958-12-31.map



[rainfedCropsOptions]

name = rainfedCrops
debugWaterBalance = True

# soil and parameters (specifically) for this land cover type
usingSpecificSoilTopo = True
topographyNC      = global_05min/landSurface/topography/topography_parameters_5_arcmin_october_2015.nc
soilPropertiesNC  = /projects/0/dfguu/users/rens/data/GLO/Soil/soilProperties_SSP2_2050_withCFL_for_PedonTransfer_Agriculture_5arcmin.nc
# I decide to use the above soil properties so that the historical and future/climate runs are consistent. 

# snow module properties
snowModuleType      =  Simple
freezingT           =  0.0
degreeDayFactor     =  0.0025
snowWaterHoldingCap =  0.1
refreezingCoeff     =  0.05

# other paramater values
minTopWaterLayer = 0.0
minCropKC        = 0.2

# Parameters for the Arno's scheme:
arnoBeta = None
# If arnoBeta is defined, the soil water capacity distribution is based on this.
# If arnoBeta is NOT defined, maxSoilDepthFrac must be defined such that arnoBeta will be calculated based on maxSoilDepthFrac and minSoilDepthFrac.

fracVegCoverNC     = /projects/0/dfguu/users/rens/data/GLO/Vegetation/Reference/fraction_rainfed_historical_1970-2010.nc
minSoilDepthFracNC = /projects/0/dfguu/users/rens/data/GLO/Vegetation/SSP2/Properties/rainfed_minSoilDepthFrac.map 
maxSoilDepthFracNC = /projects/0/dfguu/users/rens/data/GLO/Vegetation/SSP2/Properties/rainfed_maxSoilDepthFrac.map
rootFraction1NC    = /projects/0/dfguu/users/rens/data/GLO/Vegetation/SSP2/Properties/rainfed_rootfraction_z1.map
rootFraction2NC    = /projects/0/dfguu/users/rens/data/GLO/Vegetation/SSP2/Properties/rainfed_rootfraction_z2.map
maxRootDepthNC     = /projects/0/dfguu/users/rens/data/GLO/Vegetation/SSP2/Properties/rainfed_maxSoilDepth.map
arnoBetaNC         = None

cropCoefficientNC = /projects/0/dfguu/users/rens/data/GLO/Vegetation/SSP2/Properties/rainfed_cropfactor.nc
interceptCapNC    = /projects/0/dfguu/users/rens/data/GLO/Vegetation/SSP2/Properties/rainfed_interceptionstorage.nc
coverFractionNC   = /projects/0/dfguu/users/rens/data/GLO/Vegetation/SSP2/Properties/rainfed_groundcover.nc

# initial conditions:
interceptStorIni = /projects/0/dfguu2/scratch/edwinhs/pcrglobwb2_output_05min_deltares_subsidence/non-natural_glowasis_demand_spinup_extra/only_1958/global/states/interceptStor_rainfedCrops_1958-12-31.map
snowCoverSWEIni  = /projects/0/dfguu2/scratch/edwinhs/pcrglobwb2_output_05min_deltares_subsidence/non-natural_glowasis_demand_spinup_extra/only_1958/global/states/snowCoverSWE_rainfedCrops_1958-12-31.map
snowFreeWaterIni = /projects/0/dfguu2/scratch/edwinhs/pcrglobwb2_output_05min_deltares_subsidence/non-natural_glowasis_demand_spinup_extra/only_1958/global/states/snowFreeWater_rainfedCrops_1958-12-31.map
topWaterLayerIni = /projects/0/dfguu2/scratch/edwinhs/pcrglobwb2_output_05min_deltares_subsidence/non-natural_glowasis_demand_spinup_extra/only_1958/global/states/topWaterLayer_rainfedCrops_1958-12-31.map
storUppIni       = /projects/0/dfguu2/scratch/edwinhs/pcrglobwb2_output_05min_deltares_subsidence/non-natural_glowasis_demand_spinup_extra/only_1958/global/states/storUpp_rainfedCrops_1958-12-31.map
storLowIni       = /projects/0/dfguu2/scratch/edwinhs/pcrglobwb2_output_05min_deltares_subsidence/non-natural_glowasis_demand_spinup_extra/only_1958/global/states/storLow_rainfedCrops_1958-12-31.map
interflowIni     = /projects/0/dfguu2/scratch/edwinhs/pcrglobwb2_output_05min_deltares_subsidence/non-natural_glowasis_demand_spinup_extra/only_1958/global/states/interflow_rainfedCrops_1958-12-31.map



[irrPaddyOptions]

name = irrPaddy
debugWaterBalance = True

# soil and parameters (specifically) for this land cover type
usingSpecificSoilTopo = True
topographyNC      = global_05min/landSurface/topography/topography_parameters_5_arcmin_october_2015.nc
soilPropertiesNC  = /projects/0/dfguu/users/rens/data/GLO/Soil/soilProperties_SSP2_2050_withCFL_for_PedonTransfer_Agriculture_5arcmin.nc
# I decide to use the above soil properties so that the historical and future/climate runs are consistent. 

# snow module properties
snowModuleType      =  Simple
freezingT           =  0.0
degreeDayFactor     =  0.0025
snowWaterHoldingCap =  0.1
refreezingCoeff     =  0.05

# other paramater values
minTopWaterLayer = 0.05
minCropKC        = 0.2
cropDeplFactor   = 0.2

# Parameters for the Arno's scheme:
arnoBeta = None
# If arnoBeta is defined, the soil water capacity distribution is based on this.
# If arnoBeta is NOT defined, maxSoilDepthFrac must be defined such that arnoBeta will be calculated based on maxSoilDepthFrac and minSoilDepthFrac.

fracVegCoverNC     = /projects/0/dfguu/users/rens/data/GLO/Vegetation/Reference/fraction_irrigated_paddy_historical_1970-2010.nc
minSoilDepthFracNC = /projects/0/dfguu/users/rens/data/GLO/Vegetation/SSP2/Properties/paddy_minSoilDepthFrac.map 
maxSoilDepthFracNC = /projects/0/dfguu/users/rens/data/GLO/Vegetation/SSP2/Properties/paddy_maxSoilDepthFrac.map
rootFraction1NC    = /projects/0/dfguu/users/rens/data/GLO/Vegetation/SSP2/Properties/paddy_rootfraction_z1.map
rootFraction2NC    = /projects/0/dfguu/users/rens/data/GLO/Vegetation/SSP2/Properties/paddy_rootfraction_z2.map
maxRootDepthNC     = /projects/0/dfguu/users/rens/data/GLO/Vegetation/SSP2/Properties/paddy_maxSoilDepth.map
arnoBetaNC         = None

cropCoefficientNC = /projects/0/dfguu/users/rens/data/GLO/Vegetation/SSP2/Properties/paddy_cropfactor.nc